
---------- Begin Simulation Statistics ----------
simSeconds                                   3.752002                       # Number of seconds simulated (Second)
simTicks                                 3752002224500                       # Number of ticks simulated (Tick)
finalTick                                4266786193000                       # Number of ticks from beginning of simulation (restored from checkpoints and never reset) (Tick)
simFreq                                  1000000000000                       # The number of ticks per simulated second ((Tick/Second))
hostSeconds                                    214.53                       # Real time elapsed on the host (Second)
hostTickRate                              17489502776                       # The number of ticks simulated per host second (ticks/s) ((Tick/Second))
hostMemory                                    1259196                       # Number of bytes of host memory used (Byte)
simInsts                                    171125889                       # Number of instructions simulated (Count)
simOps                                      201362488                       # Number of ops (including micro ops) simulated (Count)
hostInstRate                                   797682                       # Simulator instruction rate (inst/s) ((Count/Second))
hostOpRate                                     938626                       # Simulator op (including micro ops) rate (op/s) ((Count/Second))
testsys.bridge.power_state.pwrStateResidencyTicks::UNDEFINED 4266786193000                       # Cumulative time (in ticks) in various power states (Tick)
testsys.clk_domain.clock                         1000                       # Clock period in ticks (Tick)
testsys.cpu.numCycles                      7504027560                       # Number of cpu cycles simulated (Cycle)
testsys.cpu.numWorkItemsStarted                     0                       # Number of work items this cpu started (Count)
testsys.cpu.numWorkItemsCompleted                   0                       # Number of work items this cpu completed (Count)
testsys.cpu.exec_context.thread_0.numInsts     56405726                       # Number of instructions committed (Count)
testsys.cpu.exec_context.thread_0.numOps     67143950                       # Number of ops (including micro ops) committed (Count)
testsys.cpu.exec_context.thread_0.numIntAluAccesses     62851492                       # Number of integer alu accesses (Count)
testsys.cpu.exec_context.thread_0.numFpAluAccesses            0                       # Number of float alu accesses (Count)
testsys.cpu.exec_context.thread_0.numVecAluAccesses        60194                       # Number of vector alu accesses (Count)
testsys.cpu.exec_context.thread_0.numCallsReturns      5213716                       # Number of times a function call or return occured (Count)
testsys.cpu.exec_context.thread_0.numCondCtrlInsts      6263829                       # Number of instructions that are conditional controls (Count)
testsys.cpu.exec_context.thread_0.numIntInsts     62851492                       # Number of integer instructions (Count)
testsys.cpu.exec_context.thread_0.numFpInsts            0                       # Number of float instructions (Count)
testsys.cpu.exec_context.thread_0.numVecInsts        60194                       # Number of vector instructions (Count)
testsys.cpu.exec_context.thread_0.numIntRegReads     83961538                       # Number of times the integer registers were read (Count)
testsys.cpu.exec_context.thread_0.numIntRegWrites     52124296                       # Number of times the integer registers were written (Count)
testsys.cpu.exec_context.thread_0.numFpRegReads            0                       # Number of times the floating registers were read (Count)
testsys.cpu.exec_context.thread_0.numFpRegWrites            0                       # Number of times the floating registers were written (Count)
testsys.cpu.exec_context.thread_0.numVecRegReads        83099                       # Number of times the vector registers were read (Count)
testsys.cpu.exec_context.thread_0.numVecRegWrites        43523                       # Number of times the vector registers were written (Count)
testsys.cpu.exec_context.thread_0.numVecPredRegReads            0                       # Number of times the predicate registers were read (Count)
testsys.cpu.exec_context.thread_0.numVecPredRegWrites            0                       # Number of times the predicate registers were written (Count)
testsys.cpu.exec_context.thread_0.numCCRegReads     12590435                       # Number of times the CC registers were read (Count)
testsys.cpu.exec_context.thread_0.numCCRegWrites     12462303                       # Number of times the CC registers were written (Count)
testsys.cpu.exec_context.thread_0.numMemRefs     18905338                       # Number of memory refs (Count)
testsys.cpu.exec_context.thread_0.numLoadInsts     10461319                       # Number of load instructions (Count)
testsys.cpu.exec_context.thread_0.numStoreInsts      8444019                       # Number of store instructions (Count)
testsys.cpu.exec_context.thread_0.numIdleCycles 7436893274.788988                       # Number of idle cycles (Cycle)
testsys.cpu.exec_context.thread_0.numBusyCycles 67134285.211012                       # Number of busy cycles (Cycle)
testsys.cpu.exec_context.thread_0.notIdleFraction     0.008946                       # Percentage of non-idle cycles (Ratio)
testsys.cpu.exec_context.thread_0.idleFraction     0.991054                       # Percentage of idle cycles (Ratio)
testsys.cpu.exec_context.thread_0.numBranches     11968042                       # Number of branches fetched (Count)
testsys.cpu.exec_context.thread_0.statExecutedInstType::No_OpClass         7788      0.01%      0.01% # Class of executed instruction. (Count)
testsys.cpu.exec_context.thread_0.statExecutedInstType::IntAlu     48139850     71.69%     71.71% # Class of executed instruction. (Count)
testsys.cpu.exec_context.thread_0.statExecutedInstType::IntMult        53105      0.08%     71.79% # Class of executed instruction. (Count)
testsys.cpu.exec_context.thread_0.statExecutedInstType::IntDiv         2302      0.00%     71.79% # Class of executed instruction. (Count)
testsys.cpu.exec_context.thread_0.statExecutedInstType::FloatAdd            0      0.00%     71.79% # Class of executed instruction. (Count)
testsys.cpu.exec_context.thread_0.statExecutedInstType::FloatCmp            0      0.00%     71.79% # Class of executed instruction. (Count)
testsys.cpu.exec_context.thread_0.statExecutedInstType::FloatCvt            0      0.00%     71.79% # Class of executed instruction. (Count)
testsys.cpu.exec_context.thread_0.statExecutedInstType::FloatMult            0      0.00%     71.79% # Class of executed instruction. (Count)
testsys.cpu.exec_context.thread_0.statExecutedInstType::FloatMultAcc            0      0.00%     71.79% # Class of executed instruction. (Count)
testsys.cpu.exec_context.thread_0.statExecutedInstType::FloatDiv            0      0.00%     71.79% # Class of executed instruction. (Count)
testsys.cpu.exec_context.thread_0.statExecutedInstType::FloatMisc            1      0.00%     71.79% # Class of executed instruction. (Count)
testsys.cpu.exec_context.thread_0.statExecutedInstType::FloatSqrt            0      0.00%     71.79% # Class of executed instruction. (Count)
testsys.cpu.exec_context.thread_0.statExecutedInstType::SimdAdd         6691      0.01%     71.80% # Class of executed instruction. (Count)
testsys.cpu.exec_context.thread_0.statExecutedInstType::SimdAddAcc            0      0.00%     71.80% # Class of executed instruction. (Count)
testsys.cpu.exec_context.thread_0.statExecutedInstType::SimdAlu        15638      0.02%     71.82% # Class of executed instruction. (Count)
testsys.cpu.exec_context.thread_0.statExecutedInstType::SimdCmp         8608      0.01%     71.83% # Class of executed instruction. (Count)
testsys.cpu.exec_context.thread_0.statExecutedInstType::SimdCvt            0      0.00%     71.83% # Class of executed instruction. (Count)
testsys.cpu.exec_context.thread_0.statExecutedInstType::SimdMisc         6224      0.01%     71.84% # Class of executed instruction. (Count)
testsys.cpu.exec_context.thread_0.statExecutedInstType::SimdMult            0      0.00%     71.84% # Class of executed instruction. (Count)
testsys.cpu.exec_context.thread_0.statExecutedInstType::SimdMultAcc            0      0.00%     71.84% # Class of executed instruction. (Count)
testsys.cpu.exec_context.thread_0.statExecutedInstType::SimdShift            0      0.00%     71.84% # Class of executed instruction. (Count)
testsys.cpu.exec_context.thread_0.statExecutedInstType::SimdShiftAcc            0      0.00%     71.84% # Class of executed instruction. (Count)
testsys.cpu.exec_context.thread_0.statExecutedInstType::SimdDiv            0      0.00%     71.84% # Class of executed instruction. (Count)
testsys.cpu.exec_context.thread_0.statExecutedInstType::SimdSqrt            0      0.00%     71.84% # Class of executed instruction. (Count)
testsys.cpu.exec_context.thread_0.statExecutedInstType::SimdFloatAdd            0      0.00%     71.84% # Class of executed instruction. (Count)
testsys.cpu.exec_context.thread_0.statExecutedInstType::SimdFloatAlu            0      0.00%     71.84% # Class of executed instruction. (Count)
testsys.cpu.exec_context.thread_0.statExecutedInstType::SimdFloatCmp            0      0.00%     71.84% # Class of executed instruction. (Count)
testsys.cpu.exec_context.thread_0.statExecutedInstType::SimdFloatCvt            0      0.00%     71.84% # Class of executed instruction. (Count)
testsys.cpu.exec_context.thread_0.statExecutedInstType::SimdFloatDiv            0      0.00%     71.84% # Class of executed instruction. (Count)
testsys.cpu.exec_context.thread_0.statExecutedInstType::SimdFloatMisc            0      0.00%     71.84% # Class of executed instruction. (Count)
testsys.cpu.exec_context.thread_0.statExecutedInstType::SimdFloatMult            0      0.00%     71.84% # Class of executed instruction. (Count)
testsys.cpu.exec_context.thread_0.statExecutedInstType::SimdFloatMultAcc            0      0.00%     71.84% # Class of executed instruction. (Count)
testsys.cpu.exec_context.thread_0.statExecutedInstType::SimdFloatSqrt            0      0.00%     71.84% # Class of executed instruction. (Count)
testsys.cpu.exec_context.thread_0.statExecutedInstType::SimdReduceAdd            0      0.00%     71.84% # Class of executed instruction. (Count)
testsys.cpu.exec_context.thread_0.statExecutedInstType::SimdReduceAlu            0      0.00%     71.84% # Class of executed instruction. (Count)
testsys.cpu.exec_context.thread_0.statExecutedInstType::SimdReduceCmp            0      0.00%     71.84% # Class of executed instruction. (Count)
testsys.cpu.exec_context.thread_0.statExecutedInstType::SimdFloatReduceAdd            0      0.00%     71.84% # Class of executed instruction. (Count)
testsys.cpu.exec_context.thread_0.statExecutedInstType::SimdFloatReduceCmp            0      0.00%     71.84% # Class of executed instruction. (Count)
testsys.cpu.exec_context.thread_0.statExecutedInstType::SimdAes            0      0.00%     71.84% # Class of executed instruction. (Count)
testsys.cpu.exec_context.thread_0.statExecutedInstType::SimdAesMix            0      0.00%     71.84% # Class of executed instruction. (Count)
testsys.cpu.exec_context.thread_0.statExecutedInstType::SimdSha1Hash            0      0.00%     71.84% # Class of executed instruction. (Count)
testsys.cpu.exec_context.thread_0.statExecutedInstType::SimdSha1Hash2            0      0.00%     71.84% # Class of executed instruction. (Count)
testsys.cpu.exec_context.thread_0.statExecutedInstType::SimdSha256Hash            0      0.00%     71.84% # Class of executed instruction. (Count)
testsys.cpu.exec_context.thread_0.statExecutedInstType::SimdSha256Hash2            0      0.00%     71.84% # Class of executed instruction. (Count)
testsys.cpu.exec_context.thread_0.statExecutedInstType::SimdShaSigma2            0      0.00%     71.84% # Class of executed instruction. (Count)
testsys.cpu.exec_context.thread_0.statExecutedInstType::SimdShaSigma3            0      0.00%     71.84% # Class of executed instruction. (Count)
testsys.cpu.exec_context.thread_0.statExecutedInstType::SimdPredAlu            0      0.00%     71.84% # Class of executed instruction. (Count)
testsys.cpu.exec_context.thread_0.statExecutedInstType::MemRead     10461319     15.58%     87.42% # Class of executed instruction. (Count)
testsys.cpu.exec_context.thread_0.statExecutedInstType::MemWrite      8444019     12.58%    100.00% # Class of executed instruction. (Count)
testsys.cpu.exec_context.thread_0.statExecutedInstType::FloatMemRead            0      0.00%    100.00% # Class of executed instruction. (Count)
testsys.cpu.exec_context.thread_0.statExecutedInstType::FloatMemWrite            0      0.00%    100.00% # Class of executed instruction. (Count)
testsys.cpu.exec_context.thread_0.statExecutedInstType::IprAccess            0      0.00%    100.00% # Class of executed instruction. (Count)
testsys.cpu.exec_context.thread_0.statExecutedInstType::InstPrefetch            0      0.00%    100.00% # Class of executed instruction. (Count)
testsys.cpu.exec_context.thread_0.statExecutedInstType::total     67145545                       # Class of executed instruction. (Count)
testsys.cpu.mmu.dtb.instHits                        0                       # ITB inst hits (Count)
testsys.cpu.mmu.dtb.instMisses                      0                       # ITB inst misses (Count)
testsys.cpu.mmu.dtb.readHits                 10468503                       # DTB read hits (Count)
testsys.cpu.mmu.dtb.readMisses                   7412                       # DTB read misses (Count)
testsys.cpu.mmu.dtb.writeHits                 8443423                       # DTB write hits (Count)
testsys.cpu.mmu.dtb.writeMisses                  1082                       # DTB write misses (Count)
testsys.cpu.mmu.dtb.inserts                      8126                       # Number of times an entry is inserted into the TLB (Count)
testsys.cpu.mmu.dtb.flushTlb                        0                       # Number of times complete TLB was flushed (Count)
testsys.cpu.mmu.dtb.flushTlbMva                     9                       # Number of times TLB was flushed by MVA (Count)
testsys.cpu.mmu.dtb.flushTlbMvaAsid               922                       # Number of times TLB was flushed by MVA & ASID (Count)
testsys.cpu.mmu.dtb.flushTlbAsid                    8                       # Number of times TLB was flushed by ASID (Count)
testsys.cpu.mmu.dtb.flushedEntries                508                       # Number of entries that have been flushed from TLB (Count)
testsys.cpu.mmu.dtb.alignFaults                     0                       # Number of TLB faults due to alignment restrictions (Count)
testsys.cpu.mmu.dtb.prefetchFaults               2121                       # Number of TLB faults due to prefetch (Count)
testsys.cpu.mmu.dtb.domainFaults                    0                       # Number of TLB faults due to domain restrictions (Count)
testsys.cpu.mmu.dtb.permsFaults                   216                       # Number of TLB faults due to permissions restrictions (Count)
testsys.cpu.mmu.dtb.readAccesses             10475915                       # DTB read accesses (Count)
testsys.cpu.mmu.dtb.writeAccesses             8444505                       # DTB write accesses (Count)
testsys.cpu.mmu.dtb.instAccesses                    0                       # ITB inst accesses (Count)
testsys.cpu.mmu.dtb.hits                     18911926                       # Total TLB (inst and data) hits (Count)
testsys.cpu.mmu.dtb.misses                       8494                       # Total TLB (inst and data) misses (Count)
testsys.cpu.mmu.dtb.accesses                 18920420                       # Total TLB (inst and data) accesses (Count)
testsys.cpu.mmu.dtb.stage2_mmu.stage2_tlb.instHits            0                       # ITB inst hits (Count)
testsys.cpu.mmu.dtb.stage2_mmu.stage2_tlb.instMisses            0                       # ITB inst misses (Count)
testsys.cpu.mmu.dtb.stage2_mmu.stage2_tlb.readHits            0                       # DTB read hits (Count)
testsys.cpu.mmu.dtb.stage2_mmu.stage2_tlb.readMisses            0                       # DTB read misses (Count)
testsys.cpu.mmu.dtb.stage2_mmu.stage2_tlb.writeHits            0                       # DTB write hits (Count)
testsys.cpu.mmu.dtb.stage2_mmu.stage2_tlb.writeMisses            0                       # DTB write misses (Count)
testsys.cpu.mmu.dtb.stage2_mmu.stage2_tlb.inserts            0                       # Number of times an entry is inserted into the TLB (Count)
testsys.cpu.mmu.dtb.stage2_mmu.stage2_tlb.flushTlb            0                       # Number of times complete TLB was flushed (Count)
testsys.cpu.mmu.dtb.stage2_mmu.stage2_tlb.flushTlbMva            0                       # Number of times TLB was flushed by MVA (Count)
testsys.cpu.mmu.dtb.stage2_mmu.stage2_tlb.flushTlbMvaAsid            0                       # Number of times TLB was flushed by MVA & ASID (Count)
testsys.cpu.mmu.dtb.stage2_mmu.stage2_tlb.flushTlbAsid            0                       # Number of times TLB was flushed by ASID (Count)
testsys.cpu.mmu.dtb.stage2_mmu.stage2_tlb.flushedEntries            0                       # Number of entries that have been flushed from TLB (Count)
testsys.cpu.mmu.dtb.stage2_mmu.stage2_tlb.alignFaults            0                       # Number of TLB faults due to alignment restrictions (Count)
testsys.cpu.mmu.dtb.stage2_mmu.stage2_tlb.prefetchFaults            0                       # Number of TLB faults due to prefetch (Count)
testsys.cpu.mmu.dtb.stage2_mmu.stage2_tlb.domainFaults            0                       # Number of TLB faults due to domain restrictions (Count)
testsys.cpu.mmu.dtb.stage2_mmu.stage2_tlb.permsFaults            0                       # Number of TLB faults due to permissions restrictions (Count)
testsys.cpu.mmu.dtb.stage2_mmu.stage2_tlb.readAccesses            0                       # DTB read accesses (Count)
testsys.cpu.mmu.dtb.stage2_mmu.stage2_tlb.writeAccesses            0                       # DTB write accesses (Count)
testsys.cpu.mmu.dtb.stage2_mmu.stage2_tlb.instAccesses            0                       # ITB inst accesses (Count)
testsys.cpu.mmu.dtb.stage2_mmu.stage2_tlb.hits            0                       # Total TLB (inst and data) hits (Count)
testsys.cpu.mmu.dtb.stage2_mmu.stage2_tlb.misses            0                       # Total TLB (inst and data) misses (Count)
testsys.cpu.mmu.dtb.stage2_mmu.stage2_tlb.accesses            0                       # Total TLB (inst and data) accesses (Count)
testsys.cpu.mmu.dtb.stage2_mmu.stage2_tlb.walker.walks            0                       # Table walker walks requested (Count)
testsys.cpu.mmu.dtb.stage2_mmu.stage2_tlb.walker.requestOrigin_Requested::Data            0                       # Table walker requests started/completed, data/inst (Count)
testsys.cpu.mmu.dtb.stage2_mmu.stage2_tlb.walker.requestOrigin_Requested::Inst            0                       # Table walker requests started/completed, data/inst (Count)
testsys.cpu.mmu.dtb.stage2_mmu.stage2_tlb.walker.requestOrigin_Requested::total            0                       # Table walker requests started/completed, data/inst (Count)
testsys.cpu.mmu.dtb.stage2_mmu.stage2_tlb.walker.requestOrigin_Completed::Data            0                       # Table walker requests started/completed, data/inst (Count)
testsys.cpu.mmu.dtb.stage2_mmu.stage2_tlb.walker.requestOrigin_Completed::Inst            0                       # Table walker requests started/completed, data/inst (Count)
testsys.cpu.mmu.dtb.stage2_mmu.stage2_tlb.walker.requestOrigin_Completed::total            0                       # Table walker requests started/completed, data/inst (Count)
testsys.cpu.mmu.dtb.stage2_mmu.stage2_tlb.walker.requestOrigin::total            0                       # Table walker requests started/completed, data/inst (Count)
testsys.cpu.mmu.dtb.stage2_mmu.stage2_tlb.walker.power_state.pwrStateResidencyTicks::UNDEFINED 4266786193000                       # Cumulative time (in ticks) in various power states (Tick)
testsys.cpu.mmu.dtb.walker.walks                 8494                       # Table walker walks requested (Count)
testsys.cpu.mmu.dtb.walker.walksLongDescriptor         8494                       # Table walker walks initiated with long descriptors (Count)
testsys.cpu.mmu.dtb.walker.walkWaitTime::samples         8494                       # Table walker wait (enqueue to first request) latency (Tick)
testsys.cpu.mmu.dtb.walker.walkWaitTime::0         8494    100.00%    100.00% # Table walker wait (enqueue to first request) latency (Tick)
testsys.cpu.mmu.dtb.walker.walkWaitTime::total         8494                       # Table walker wait (enqueue to first request) latency (Tick)
testsys.cpu.mmu.dtb.walker.pageSizes::4KiB         7606     93.60%     93.60% # Table walker page sizes translated (Count)
testsys.cpu.mmu.dtb.walker.pageSizes::2MiB          520      6.40%    100.00% # Table walker page sizes translated (Count)
testsys.cpu.mmu.dtb.walker.pageSizes::total         8126                       # Table walker page sizes translated (Count)
testsys.cpu.mmu.dtb.walker.requestOrigin_Requested::Data         8494                       # Table walker requests started/completed, data/inst (Count)
testsys.cpu.mmu.dtb.walker.requestOrigin_Requested::Inst            0                       # Table walker requests started/completed, data/inst (Count)
testsys.cpu.mmu.dtb.walker.requestOrigin_Requested::total         8494                       # Table walker requests started/completed, data/inst (Count)
testsys.cpu.mmu.dtb.walker.requestOrigin_Completed::Data         8126                       # Table walker requests started/completed, data/inst (Count)
testsys.cpu.mmu.dtb.walker.requestOrigin_Completed::Inst            0                       # Table walker requests started/completed, data/inst (Count)
testsys.cpu.mmu.dtb.walker.requestOrigin_Completed::total         8126                       # Table walker requests started/completed, data/inst (Count)
testsys.cpu.mmu.dtb.walker.requestOrigin::total        16620                       # Table walker requests started/completed, data/inst (Count)
testsys.cpu.mmu.dtb.walker.power_state.pwrStateResidencyTicks::UNDEFINED 4266786193000                       # Cumulative time (in ticks) in various power states (Tick)
testsys.cpu.mmu.itb.instHits                 56382662                       # ITB inst hits (Count)
testsys.cpu.mmu.itb.instMisses                  24797                       # ITB inst misses (Count)
testsys.cpu.mmu.itb.readHits                        0                       # DTB read hits (Count)
testsys.cpu.mmu.itb.readMisses                      0                       # DTB read misses (Count)
testsys.cpu.mmu.itb.writeHits                       0                       # DTB write hits (Count)
testsys.cpu.mmu.itb.writeMisses                     0                       # DTB write misses (Count)
testsys.cpu.mmu.itb.inserts                     24659                       # Number of times an entry is inserted into the TLB (Count)
testsys.cpu.mmu.itb.flushTlb                        0                       # Number of times complete TLB was flushed (Count)
testsys.cpu.mmu.itb.flushTlbMva                     9                       # Number of times TLB was flushed by MVA (Count)
testsys.cpu.mmu.itb.flushTlbMvaAsid               922                       # Number of times TLB was flushed by MVA & ASID (Count)
testsys.cpu.mmu.itb.flushTlbAsid                    8                       # Number of times TLB was flushed by ASID (Count)
testsys.cpu.mmu.itb.flushedEntries                256                       # Number of entries that have been flushed from TLB (Count)
testsys.cpu.mmu.itb.alignFaults                     0                       # Number of TLB faults due to alignment restrictions (Count)
testsys.cpu.mmu.itb.prefetchFaults                  0                       # Number of TLB faults due to prefetch (Count)
testsys.cpu.mmu.itb.domainFaults                    0                       # Number of TLB faults due to domain restrictions (Count)
testsys.cpu.mmu.itb.permsFaults                     0                       # Number of TLB faults due to permissions restrictions (Count)
testsys.cpu.mmu.itb.readAccesses                    0                       # DTB read accesses (Count)
testsys.cpu.mmu.itb.writeAccesses                   0                       # DTB write accesses (Count)
testsys.cpu.mmu.itb.instAccesses             56407459                       # ITB inst accesses (Count)
testsys.cpu.mmu.itb.hits                     56382662                       # Total TLB (inst and data) hits (Count)
testsys.cpu.mmu.itb.misses                      24797                       # Total TLB (inst and data) misses (Count)
testsys.cpu.mmu.itb.accesses                 56407459                       # Total TLB (inst and data) accesses (Count)
testsys.cpu.mmu.itb.stage2_mmu.stage2_tlb.instHits            0                       # ITB inst hits (Count)
testsys.cpu.mmu.itb.stage2_mmu.stage2_tlb.instMisses            0                       # ITB inst misses (Count)
testsys.cpu.mmu.itb.stage2_mmu.stage2_tlb.readHits            0                       # DTB read hits (Count)
testsys.cpu.mmu.itb.stage2_mmu.stage2_tlb.readMisses            0                       # DTB read misses (Count)
testsys.cpu.mmu.itb.stage2_mmu.stage2_tlb.writeHits            0                       # DTB write hits (Count)
testsys.cpu.mmu.itb.stage2_mmu.stage2_tlb.writeMisses            0                       # DTB write misses (Count)
testsys.cpu.mmu.itb.stage2_mmu.stage2_tlb.inserts            0                       # Number of times an entry is inserted into the TLB (Count)
testsys.cpu.mmu.itb.stage2_mmu.stage2_tlb.flushTlb            0                       # Number of times complete TLB was flushed (Count)
testsys.cpu.mmu.itb.stage2_mmu.stage2_tlb.flushTlbMva            0                       # Number of times TLB was flushed by MVA (Count)
testsys.cpu.mmu.itb.stage2_mmu.stage2_tlb.flushTlbMvaAsid            0                       # Number of times TLB was flushed by MVA & ASID (Count)
testsys.cpu.mmu.itb.stage2_mmu.stage2_tlb.flushTlbAsid            0                       # Number of times TLB was flushed by ASID (Count)
testsys.cpu.mmu.itb.stage2_mmu.stage2_tlb.flushedEntries            0                       # Number of entries that have been flushed from TLB (Count)
testsys.cpu.mmu.itb.stage2_mmu.stage2_tlb.alignFaults            0                       # Number of TLB faults due to alignment restrictions (Count)
testsys.cpu.mmu.itb.stage2_mmu.stage2_tlb.prefetchFaults            0                       # Number of TLB faults due to prefetch (Count)
testsys.cpu.mmu.itb.stage2_mmu.stage2_tlb.domainFaults            0                       # Number of TLB faults due to domain restrictions (Count)
testsys.cpu.mmu.itb.stage2_mmu.stage2_tlb.permsFaults            0                       # Number of TLB faults due to permissions restrictions (Count)
testsys.cpu.mmu.itb.stage2_mmu.stage2_tlb.readAccesses            0                       # DTB read accesses (Count)
testsys.cpu.mmu.itb.stage2_mmu.stage2_tlb.writeAccesses            0                       # DTB write accesses (Count)
testsys.cpu.mmu.itb.stage2_mmu.stage2_tlb.instAccesses            0                       # ITB inst accesses (Count)
testsys.cpu.mmu.itb.stage2_mmu.stage2_tlb.hits            0                       # Total TLB (inst and data) hits (Count)
testsys.cpu.mmu.itb.stage2_mmu.stage2_tlb.misses            0                       # Total TLB (inst and data) misses (Count)
testsys.cpu.mmu.itb.stage2_mmu.stage2_tlb.accesses            0                       # Total TLB (inst and data) accesses (Count)
testsys.cpu.mmu.itb.stage2_mmu.stage2_tlb.walker.walks            0                       # Table walker walks requested (Count)
testsys.cpu.mmu.itb.stage2_mmu.stage2_tlb.walker.requestOrigin_Requested::Data            0                       # Table walker requests started/completed, data/inst (Count)
testsys.cpu.mmu.itb.stage2_mmu.stage2_tlb.walker.requestOrigin_Requested::Inst            0                       # Table walker requests started/completed, data/inst (Count)
testsys.cpu.mmu.itb.stage2_mmu.stage2_tlb.walker.requestOrigin_Requested::total            0                       # Table walker requests started/completed, data/inst (Count)
testsys.cpu.mmu.itb.stage2_mmu.stage2_tlb.walker.requestOrigin_Completed::Data            0                       # Table walker requests started/completed, data/inst (Count)
testsys.cpu.mmu.itb.stage2_mmu.stage2_tlb.walker.requestOrigin_Completed::Inst            0                       # Table walker requests started/completed, data/inst (Count)
testsys.cpu.mmu.itb.stage2_mmu.stage2_tlb.walker.requestOrigin_Completed::total            0                       # Table walker requests started/completed, data/inst (Count)
testsys.cpu.mmu.itb.stage2_mmu.stage2_tlb.walker.requestOrigin::total            0                       # Table walker requests started/completed, data/inst (Count)
testsys.cpu.mmu.itb.stage2_mmu.stage2_tlb.walker.power_state.pwrStateResidencyTicks::UNDEFINED 4266786193000                       # Cumulative time (in ticks) in various power states (Tick)
testsys.cpu.mmu.itb.walker.walks                24797                       # Table walker walks requested (Count)
testsys.cpu.mmu.itb.walker.walksLongDescriptor        24797                       # Table walker walks initiated with long descriptors (Count)
testsys.cpu.mmu.itb.walker.walkWaitTime::samples        24797                       # Table walker wait (enqueue to first request) latency (Tick)
testsys.cpu.mmu.itb.walker.walkWaitTime::0        24797    100.00%    100.00% # Table walker wait (enqueue to first request) latency (Tick)
testsys.cpu.mmu.itb.walker.walkWaitTime::total        24797                       # Table walker wait (enqueue to first request) latency (Tick)
testsys.cpu.mmu.itb.walker.pageSizes::4KiB        24517     99.42%     99.42% # Table walker page sizes translated (Count)
testsys.cpu.mmu.itb.walker.pageSizes::2MiB          142      0.58%    100.00% # Table walker page sizes translated (Count)
testsys.cpu.mmu.itb.walker.pageSizes::total        24659                       # Table walker page sizes translated (Count)
testsys.cpu.mmu.itb.walker.requestOrigin_Requested::Data            0                       # Table walker requests started/completed, data/inst (Count)
testsys.cpu.mmu.itb.walker.requestOrigin_Requested::Inst        24797                       # Table walker requests started/completed, data/inst (Count)
testsys.cpu.mmu.itb.walker.requestOrigin_Requested::total        24797                       # Table walker requests started/completed, data/inst (Count)
testsys.cpu.mmu.itb.walker.requestOrigin_Completed::Data            0                       # Table walker requests started/completed, data/inst (Count)
testsys.cpu.mmu.itb.walker.requestOrigin_Completed::Inst        24659                       # Table walker requests started/completed, data/inst (Count)
testsys.cpu.mmu.itb.walker.requestOrigin_Completed::total        24659                       # Table walker requests started/completed, data/inst (Count)
testsys.cpu.mmu.itb.walker.requestOrigin::total        49456                       # Table walker requests started/completed, data/inst (Count)
testsys.cpu.mmu.itb.walker.power_state.pwrStateResidencyTicks::UNDEFINED 4266786193000                       # Cumulative time (in ticks) in various power states (Tick)
testsys.cpu.power_state.numTransitions          46222                       # Number of power state transitions (Count)
testsys.cpu.power_state.ticksClkGated::samples        23111                       # Distribution of time spent in the clock gated state (Tick)
testsys.cpu.power_state.ticksClkGated::mean 160894603.663883                       # Distribution of time spent in the clock gated state (Tick)
testsys.cpu.power_state.ticksClkGated::stdev 10754029.178794                       # Distribution of time spent in the clock gated state (Tick)
testsys.cpu.power_state.ticksClkGated::underflows           23      0.10%      0.10% # Distribution of time spent in the clock gated state (Tick)
testsys.cpu.power_state.ticksClkGated::1000-5e+10        23088     99.90%    100.00% # Distribution of time spent in the clock gated state (Tick)
testsys.cpu.power_state.ticksClkGated::min_value          501                       # Distribution of time spent in the clock gated state (Tick)
testsys.cpu.power_state.ticksClkGated::max_value    162297656                       # Distribution of time spent in the clock gated state (Tick)
testsys.cpu.power_state.ticksClkGated::total        23111                       # Distribution of time spent in the clock gated state (Tick)
testsys.cpu.power_state.pwrStateResidencyTicks::ON  34193782643                       # Cumulative time (in ticks) in various power states (Tick)
testsys.cpu.power_state.pwrStateResidencyTicks::CLK_GATED 3718435185276                       # Cumulative time (in ticks) in various power states (Tick)
testsys.cpu.thread_0.numInsts                       0                       # Number of Instructions committed (Count)
testsys.cpu.thread_0.numOps                         0                       # Number of Ops committed (Count)
testsys.cpu.thread_0.numMemRefs                     0                       # Number of Memory References (Count)
testsys.cpu_clk_domain.clock                      500                       # Clock period in ticks (Tick)
testsys.cpu_voltage_domain.voltage                  1                       # Voltage in Volts (Volt)
testsys.iobridge.power_state.pwrStateResidencyTicks::UNDEFINED 4266786193000                       # Cumulative time (in ticks) in various power states (Tick)
testsys.iobus.transDist::ReadReq                 2539                       # Transaction distribution (Count)
testsys.iobus.transDist::ReadResp                2539                       # Transaction distribution (Count)
testsys.iobus.transDist::WriteReq               38960                       # Transaction distribution (Count)
testsys.iobus.transDist::WriteResp              38960                       # Transaction distribution (Count)
testsys.iobus.pktCount_testsys.bridge.mem_side_port::testsys.realview.ethernet.pio          518                       # Packet count per connected requestor and responder (Count)
testsys.iobus.pktCount_testsys.bridge.mem_side_port::testsys.realview.uart0.pio         2666                       # Packet count per connected requestor and responder (Count)
testsys.iobus.pktCount_testsys.bridge.mem_side_port::testsys.pci_ide.pio         5928                       # Packet count per connected requestor and responder (Count)
testsys.iobus.pktCount_testsys.bridge.mem_side_port::total         9112                       # Packet count per connected requestor and responder (Count)
testsys.iobus.pktCount_testsys.realview.ethernet.dma::testsys.iobridge.cpu_side_port           28                       # Packet count per connected requestor and responder (Count)
testsys.iobus.pktCount_testsys.realview.ethernet.dma::total           28                       # Packet count per connected requestor and responder (Count)
testsys.iobus.pktCount_testsys.pci_ide.dma::testsys.iobridge.cpu_side_port        73858                       # Packet count per connected requestor and responder (Count)
testsys.iobus.pktCount_testsys.pci_ide.dma::total        73858                       # Packet count per connected requestor and responder (Count)
testsys.iobus.pktCount::total                   82998                       # Packet count per connected requestor and responder (Count)
testsys.iobus.pktSize_testsys.bridge.mem_side_port::testsys.realview.ethernet.pio         1036                       # Cumulative packet size per connected requestor and responder (Byte)
testsys.iobus.pktSize_testsys.bridge.mem_side_port::testsys.realview.uart0.pio         2666                       # Cumulative packet size per connected requestor and responder (Byte)
testsys.iobus.pktSize_testsys.bridge.mem_side_port::testsys.pci_ide.pio         3306                       # Cumulative packet size per connected requestor and responder (Byte)
testsys.iobus.pktSize_testsys.bridge.mem_side_port::total         7008                       # Cumulative packet size per connected requestor and responder (Byte)
testsys.iobus.pktSize_testsys.realview.ethernet.dma::testsys.iobridge.cpu_side_port          444                       # Cumulative packet size per connected requestor and responder (Byte)
testsys.iobus.pktSize_testsys.realview.ethernet.dma::total          444                       # Cumulative packet size per connected requestor and responder (Byte)
testsys.iobus.pktSize_testsys.pci_ide.dma::testsys.iobridge.cpu_side_port      2352648                       # Cumulative packet size per connected requestor and responder (Byte)
testsys.iobus.pktSize_testsys.pci_ide.dma::total      2352648                       # Cumulative packet size per connected requestor and responder (Byte)
testsys.iobus.pktSize::total                  2360100                       # Cumulative packet size per connected requestor and responder (Byte)
testsys.iobus.power_state.pwrStateResidencyTicks::UNDEFINED 4266786193000                       # Cumulative time (in ticks) in various power states (Tick)
testsys.mem_ctrls.priorityMinLatency     0.000000000000                       # per QoS priority minimum request to response latency (Second)
testsys.mem_ctrls.priorityMaxLatency     0.000000000000                       # per QoS priority maximum request to response latency (Second)
testsys.mem_ctrls.numReadWriteTurnArounds            0                       # Number of turnarounds from READ to WRITE (Count)
testsys.mem_ctrls.numWriteReadTurnArounds            0                       # Number of turnarounds from WRITE to READ (Count)
testsys.mem_ctrls.numStayReadState                  0                       # Number of times bus staying in READ state (Count)
testsys.mem_ctrls.numStayWriteState                 0                       # Number of times bus staying in WRITE state (Count)
testsys.mem_ctrls.readReqs                          0                       # Number of read requests accepted (Count)
testsys.mem_ctrls.writeReqs                         0                       # Number of write requests accepted (Count)
testsys.mem_ctrls.readBursts                        0                       # Number of controller read bursts, including those serviced by the write queue (Count)
testsys.mem_ctrls.writeBursts                       0                       # Number of controller write bursts, including those merged in the write queue (Count)
testsys.mem_ctrls.servicedByWrQ                     0                       # Number of controller read bursts serviced by the write queue (Count)
testsys.mem_ctrls.mergedWrBursts                    0                       # Number of controller write bursts merged with an existing one (Count)
testsys.mem_ctrls.neitherReadNorWriteReqs            0                       # Number of requests that are neither read nor write (Count)
testsys.mem_ctrls.avgRdQLen                      0.00                       # Average read queue length when enqueuing ((Count/Tick))
testsys.mem_ctrls.avgWrQLen                      0.00                       # Average write queue length when enqueuing ((Count/Tick))
testsys.mem_ctrls.numRdRetry                        0                       # Number of times read queue was full causing retry (Count)
testsys.mem_ctrls.numWrRetry                        0                       # Number of times write queue was full causing retry (Count)
testsys.mem_ctrls.readPktSize::0                    0                       # Read request sizes (log2) (Count)
testsys.mem_ctrls.readPktSize::1                    0                       # Read request sizes (log2) (Count)
testsys.mem_ctrls.readPktSize::2                    0                       # Read request sizes (log2) (Count)
testsys.mem_ctrls.readPktSize::3                    0                       # Read request sizes (log2) (Count)
testsys.mem_ctrls.readPktSize::4                    0                       # Read request sizes (log2) (Count)
testsys.mem_ctrls.readPktSize::5                    0                       # Read request sizes (log2) (Count)
testsys.mem_ctrls.readPktSize::6                    0                       # Read request sizes (log2) (Count)
testsys.mem_ctrls.writePktSize::0                   0                       # Write request sizes (log2) (Count)
testsys.mem_ctrls.writePktSize::1                   0                       # Write request sizes (log2) (Count)
testsys.mem_ctrls.writePktSize::2                   0                       # Write request sizes (log2) (Count)
testsys.mem_ctrls.writePktSize::3                   0                       # Write request sizes (log2) (Count)
testsys.mem_ctrls.writePktSize::4                   0                       # Write request sizes (log2) (Count)
testsys.mem_ctrls.writePktSize::5                   0                       # Write request sizes (log2) (Count)
testsys.mem_ctrls.writePktSize::6                   0                       # Write request sizes (log2) (Count)
testsys.mem_ctrls.rdQLenPdf::0                      0                       # What read queue length does an incoming req see (Count)
testsys.mem_ctrls.rdQLenPdf::1                      0                       # What read queue length does an incoming req see (Count)
testsys.mem_ctrls.rdQLenPdf::2                      0                       # What read queue length does an incoming req see (Count)
testsys.mem_ctrls.rdQLenPdf::3                      0                       # What read queue length does an incoming req see (Count)
testsys.mem_ctrls.rdQLenPdf::4                      0                       # What read queue length does an incoming req see (Count)
testsys.mem_ctrls.rdQLenPdf::5                      0                       # What read queue length does an incoming req see (Count)
testsys.mem_ctrls.rdQLenPdf::6                      0                       # What read queue length does an incoming req see (Count)
testsys.mem_ctrls.rdQLenPdf::7                      0                       # What read queue length does an incoming req see (Count)
testsys.mem_ctrls.rdQLenPdf::8                      0                       # What read queue length does an incoming req see (Count)
testsys.mem_ctrls.rdQLenPdf::9                      0                       # What read queue length does an incoming req see (Count)
testsys.mem_ctrls.rdQLenPdf::10                     0                       # What read queue length does an incoming req see (Count)
testsys.mem_ctrls.rdQLenPdf::11                     0                       # What read queue length does an incoming req see (Count)
testsys.mem_ctrls.rdQLenPdf::12                     0                       # What read queue length does an incoming req see (Count)
testsys.mem_ctrls.rdQLenPdf::13                     0                       # What read queue length does an incoming req see (Count)
testsys.mem_ctrls.rdQLenPdf::14                     0                       # What read queue length does an incoming req see (Count)
testsys.mem_ctrls.rdQLenPdf::15                     0                       # What read queue length does an incoming req see (Count)
testsys.mem_ctrls.rdQLenPdf::16                     0                       # What read queue length does an incoming req see (Count)
testsys.mem_ctrls.rdQLenPdf::17                     0                       # What read queue length does an incoming req see (Count)
testsys.mem_ctrls.rdQLenPdf::18                     0                       # What read queue length does an incoming req see (Count)
testsys.mem_ctrls.rdQLenPdf::19                     0                       # What read queue length does an incoming req see (Count)
testsys.mem_ctrls.rdQLenPdf::20                     0                       # What read queue length does an incoming req see (Count)
testsys.mem_ctrls.rdQLenPdf::21                     0                       # What read queue length does an incoming req see (Count)
testsys.mem_ctrls.rdQLenPdf::22                     0                       # What read queue length does an incoming req see (Count)
testsys.mem_ctrls.rdQLenPdf::23                     0                       # What read queue length does an incoming req see (Count)
testsys.mem_ctrls.rdQLenPdf::24                     0                       # What read queue length does an incoming req see (Count)
testsys.mem_ctrls.rdQLenPdf::25                     0                       # What read queue length does an incoming req see (Count)
testsys.mem_ctrls.rdQLenPdf::26                     0                       # What read queue length does an incoming req see (Count)
testsys.mem_ctrls.rdQLenPdf::27                     0                       # What read queue length does an incoming req see (Count)
testsys.mem_ctrls.rdQLenPdf::28                     0                       # What read queue length does an incoming req see (Count)
testsys.mem_ctrls.rdQLenPdf::29                     0                       # What read queue length does an incoming req see (Count)
testsys.mem_ctrls.rdQLenPdf::30                     0                       # What read queue length does an incoming req see (Count)
testsys.mem_ctrls.rdQLenPdf::31                     0                       # What read queue length does an incoming req see (Count)
testsys.mem_ctrls.wrQLenPdf::0                      0                       # What write queue length does an incoming req see (Count)
testsys.mem_ctrls.wrQLenPdf::1                      0                       # What write queue length does an incoming req see (Count)
testsys.mem_ctrls.wrQLenPdf::2                      0                       # What write queue length does an incoming req see (Count)
testsys.mem_ctrls.wrQLenPdf::3                      0                       # What write queue length does an incoming req see (Count)
testsys.mem_ctrls.wrQLenPdf::4                      0                       # What write queue length does an incoming req see (Count)
testsys.mem_ctrls.wrQLenPdf::5                      0                       # What write queue length does an incoming req see (Count)
testsys.mem_ctrls.wrQLenPdf::6                      0                       # What write queue length does an incoming req see (Count)
testsys.mem_ctrls.wrQLenPdf::7                      0                       # What write queue length does an incoming req see (Count)
testsys.mem_ctrls.wrQLenPdf::8                      0                       # What write queue length does an incoming req see (Count)
testsys.mem_ctrls.wrQLenPdf::9                      0                       # What write queue length does an incoming req see (Count)
testsys.mem_ctrls.wrQLenPdf::10                     0                       # What write queue length does an incoming req see (Count)
testsys.mem_ctrls.wrQLenPdf::11                     0                       # What write queue length does an incoming req see (Count)
testsys.mem_ctrls.wrQLenPdf::12                     0                       # What write queue length does an incoming req see (Count)
testsys.mem_ctrls.wrQLenPdf::13                     0                       # What write queue length does an incoming req see (Count)
testsys.mem_ctrls.wrQLenPdf::14                     0                       # What write queue length does an incoming req see (Count)
testsys.mem_ctrls.wrQLenPdf::15                     0                       # What write queue length does an incoming req see (Count)
testsys.mem_ctrls.wrQLenPdf::16                     0                       # What write queue length does an incoming req see (Count)
testsys.mem_ctrls.wrQLenPdf::17                     0                       # What write queue length does an incoming req see (Count)
testsys.mem_ctrls.wrQLenPdf::18                     0                       # What write queue length does an incoming req see (Count)
testsys.mem_ctrls.wrQLenPdf::19                     0                       # What write queue length does an incoming req see (Count)
testsys.mem_ctrls.wrQLenPdf::20                     0                       # What write queue length does an incoming req see (Count)
testsys.mem_ctrls.wrQLenPdf::21                     0                       # What write queue length does an incoming req see (Count)
testsys.mem_ctrls.wrQLenPdf::22                     0                       # What write queue length does an incoming req see (Count)
testsys.mem_ctrls.wrQLenPdf::23                     0                       # What write queue length does an incoming req see (Count)
testsys.mem_ctrls.wrQLenPdf::24                     0                       # What write queue length does an incoming req see (Count)
testsys.mem_ctrls.wrQLenPdf::25                     0                       # What write queue length does an incoming req see (Count)
testsys.mem_ctrls.wrQLenPdf::26                     0                       # What write queue length does an incoming req see (Count)
testsys.mem_ctrls.wrQLenPdf::27                     0                       # What write queue length does an incoming req see (Count)
testsys.mem_ctrls.wrQLenPdf::28                     0                       # What write queue length does an incoming req see (Count)
testsys.mem_ctrls.wrQLenPdf::29                     0                       # What write queue length does an incoming req see (Count)
testsys.mem_ctrls.wrQLenPdf::30                     0                       # What write queue length does an incoming req see (Count)
testsys.mem_ctrls.wrQLenPdf::31                     0                       # What write queue length does an incoming req see (Count)
testsys.mem_ctrls.wrQLenPdf::32                     0                       # What write queue length does an incoming req see (Count)
testsys.mem_ctrls.wrQLenPdf::33                     0                       # What write queue length does an incoming req see (Count)
testsys.mem_ctrls.wrQLenPdf::34                     0                       # What write queue length does an incoming req see (Count)
testsys.mem_ctrls.wrQLenPdf::35                     0                       # What write queue length does an incoming req see (Count)
testsys.mem_ctrls.wrQLenPdf::36                     0                       # What write queue length does an incoming req see (Count)
testsys.mem_ctrls.wrQLenPdf::37                     0                       # What write queue length does an incoming req see (Count)
testsys.mem_ctrls.wrQLenPdf::38                     0                       # What write queue length does an incoming req see (Count)
testsys.mem_ctrls.wrQLenPdf::39                     0                       # What write queue length does an incoming req see (Count)
testsys.mem_ctrls.wrQLenPdf::40                     0                       # What write queue length does an incoming req see (Count)
testsys.mem_ctrls.wrQLenPdf::41                     0                       # What write queue length does an incoming req see (Count)
testsys.mem_ctrls.wrQLenPdf::42                     0                       # What write queue length does an incoming req see (Count)
testsys.mem_ctrls.wrQLenPdf::43                     0                       # What write queue length does an incoming req see (Count)
testsys.mem_ctrls.wrQLenPdf::44                     0                       # What write queue length does an incoming req see (Count)
testsys.mem_ctrls.wrQLenPdf::45                     0                       # What write queue length does an incoming req see (Count)
testsys.mem_ctrls.wrQLenPdf::46                     0                       # What write queue length does an incoming req see (Count)
testsys.mem_ctrls.wrQLenPdf::47                     0                       # What write queue length does an incoming req see (Count)
testsys.mem_ctrls.wrQLenPdf::48                     0                       # What write queue length does an incoming req see (Count)
testsys.mem_ctrls.wrQLenPdf::49                     0                       # What write queue length does an incoming req see (Count)
testsys.mem_ctrls.wrQLenPdf::50                     0                       # What write queue length does an incoming req see (Count)
testsys.mem_ctrls.wrQLenPdf::51                     0                       # What write queue length does an incoming req see (Count)
testsys.mem_ctrls.wrQLenPdf::52                     0                       # What write queue length does an incoming req see (Count)
testsys.mem_ctrls.wrQLenPdf::53                     0                       # What write queue length does an incoming req see (Count)
testsys.mem_ctrls.wrQLenPdf::54                     0                       # What write queue length does an incoming req see (Count)
testsys.mem_ctrls.wrQLenPdf::55                     0                       # What write queue length does an incoming req see (Count)
testsys.mem_ctrls.wrQLenPdf::56                     0                       # What write queue length does an incoming req see (Count)
testsys.mem_ctrls.wrQLenPdf::57                     0                       # What write queue length does an incoming req see (Count)
testsys.mem_ctrls.wrQLenPdf::58                     0                       # What write queue length does an incoming req see (Count)
testsys.mem_ctrls.wrQLenPdf::59                     0                       # What write queue length does an incoming req see (Count)
testsys.mem_ctrls.wrQLenPdf::60                     0                       # What write queue length does an incoming req see (Count)
testsys.mem_ctrls.wrQLenPdf::61                     0                       # What write queue length does an incoming req see (Count)
testsys.mem_ctrls.wrQLenPdf::62                     0                       # What write queue length does an incoming req see (Count)
testsys.mem_ctrls.wrQLenPdf::63                     0                       # What write queue length does an incoming req see (Count)
testsys.mem_ctrls.bytesReadWrQ                      0                       # Total number of bytes read from write queue (Byte)
testsys.mem_ctrls.bytesReadSys                      0                       # Total read bytes from the system interface side (Byte)
testsys.mem_ctrls.bytesWrittenSys                   0                       # Total written bytes from the system interface side (Byte)
testsys.mem_ctrls.avgRdBWSys               0.00000000                       # Average system read bandwidth in Byte/s ((Byte/Second))
testsys.mem_ctrls.avgWrBWSys               0.00000000                       # Average system write bandwidth in Byte/s ((Byte/Second))
testsys.mem_ctrls.totGap                            0                       # Total gap between requests (Tick)
testsys.mem_ctrls.avgGap                          nan                       # Average gap between requests ((Tick/Count))
testsys.mem_ctrls.dram.bytesRead::cpu.inst    225629284                       # Number of bytes read from this memory (Byte)
testsys.mem_ctrls.dram.bytesRead::cpu.data     93344659                       # Number of bytes read from this memory (Byte)
testsys.mem_ctrls.dram.bytesRead::cpu.mmu.dtb.walker       199536                       # Number of bytes read from this memory (Byte)
testsys.mem_ctrls.dram.bytesRead::cpu.mmu.itb.walker       593960                       # Number of bytes read from this memory (Byte)
testsys.mem_ctrls.dram.bytesRead::pci_ide         1544                       # Number of bytes read from this memory (Byte)
testsys.mem_ctrls.dram.bytesRead::realview.ethernet          222                       # Number of bytes read from this memory (Byte)
testsys.mem_ctrls.dram.bytesRead::total     319769205                       # Number of bytes read from this memory (Byte)
testsys.mem_ctrls.dram.bytesInstRead::cpu.inst    225629284                       # Number of instructions bytes read from this memory (Byte)
testsys.mem_ctrls.dram.bytesInstRead::total    225629284                       # Number of instructions bytes read from this memory (Byte)
testsys.mem_ctrls.dram.bytesWritten::cpu.data     65529426                       # Number of bytes written to this memory (Byte)
testsys.mem_ctrls.dram.bytesWritten::pci_ide      2351104                       # Number of bytes written to this memory (Byte)
testsys.mem_ctrls.dram.bytesWritten::realview.ethernet          222                       # Number of bytes written to this memory (Byte)
testsys.mem_ctrls.dram.bytesWritten::total     67880752                       # Number of bytes written to this memory (Byte)
testsys.mem_ctrls.dram.numReads::cpu.inst     56407321                       # Number of read requests responded to by this memory (Count)
testsys.mem_ctrls.dram.numReads::cpu.data     10473018                       # Number of read requests responded to by this memory (Count)
testsys.mem_ctrls.dram.numReads::cpu.mmu.dtb.walker        24942                       # Number of read requests responded to by this memory (Count)
testsys.mem_ctrls.dram.numReads::cpu.mmu.itb.walker        74245                       # Number of read requests responded to by this memory (Count)
testsys.mem_ctrls.dram.numReads::pci_ide          193                       # Number of read requests responded to by this memory (Count)
testsys.mem_ctrls.dram.numReads::realview.ethernet            7                       # Number of read requests responded to by this memory (Count)
testsys.mem_ctrls.dram.numReads::total       66979726                       # Number of read requests responded to by this memory (Count)
testsys.mem_ctrls.dram.numWrites::cpu.data      8413076                       # Number of write requests responded to by this memory (Count)
testsys.mem_ctrls.dram.numWrites::pci_ide        36736                       # Number of write requests responded to by this memory (Count)
testsys.mem_ctrls.dram.numWrites::realview.ethernet            7                       # Number of write requests responded to by this memory (Count)
testsys.mem_ctrls.dram.numWrites::total       8449819                       # Number of write requests responded to by this memory (Count)
testsys.mem_ctrls.dram.bwRead::cpu.inst      60135701                       # Total read bandwidth from this memory ((Byte/Second))
testsys.mem_ctrls.dram.bwRead::cpu.data      24878626                       # Total read bandwidth from this memory ((Byte/Second))
testsys.mem_ctrls.dram.bwRead::cpu.mmu.dtb.walker        53181                       # Total read bandwidth from this memory ((Byte/Second))
testsys.mem_ctrls.dram.bwRead::cpu.mmu.itb.walker       158305                       # Total read bandwidth from this memory ((Byte/Second))
testsys.mem_ctrls.dram.bwRead::pci_ide            412                       # Total read bandwidth from this memory ((Byte/Second))
testsys.mem_ctrls.dram.bwRead::realview.ethernet           59                       # Total read bandwidth from this memory ((Byte/Second))
testsys.mem_ctrls.dram.bwRead::total         85226283                       # Total read bandwidth from this memory ((Byte/Second))
testsys.mem_ctrls.dram.bwInstRead::cpu.inst     60135701                       # Instruction read bandwidth from this memory ((Byte/Second))
testsys.mem_ctrls.dram.bwInstRead::total     60135701                       # Instruction read bandwidth from this memory ((Byte/Second))
testsys.mem_ctrls.dram.bwWrite::cpu.data     17465188                       # Write bandwidth from this memory ((Byte/Second))
testsys.mem_ctrls.dram.bwWrite::pci_ide        626626                       # Write bandwidth from this memory ((Byte/Second))
testsys.mem_ctrls.dram.bwWrite::realview.ethernet           59                       # Write bandwidth from this memory ((Byte/Second))
testsys.mem_ctrls.dram.bwWrite::total        18091874                       # Write bandwidth from this memory ((Byte/Second))
testsys.mem_ctrls.dram.bwTotal::cpu.inst     60135701                       # Total bandwidth to/from this memory ((Byte/Second))
testsys.mem_ctrls.dram.bwTotal::cpu.data     42343814                       # Total bandwidth to/from this memory ((Byte/Second))
testsys.mem_ctrls.dram.bwTotal::cpu.mmu.dtb.walker        53181                       # Total bandwidth to/from this memory ((Byte/Second))
testsys.mem_ctrls.dram.bwTotal::cpu.mmu.itb.walker       158305                       # Total bandwidth to/from this memory ((Byte/Second))
testsys.mem_ctrls.dram.bwTotal::pci_ide        627038                       # Total bandwidth to/from this memory ((Byte/Second))
testsys.mem_ctrls.dram.bwTotal::realview.ethernet          118                       # Total bandwidth to/from this memory ((Byte/Second))
testsys.mem_ctrls.dram.bwTotal::total       103318158                       # Total bandwidth to/from this memory ((Byte/Second))
testsys.mem_ctrls.dram.readBursts                   0                       # Number of DRAM read bursts (Count)
testsys.mem_ctrls.dram.writeBursts                  0                       # Number of DRAM write bursts (Count)
testsys.mem_ctrls.dram.perBankRdBursts::0            0                       # Per bank write bursts (Count)
testsys.mem_ctrls.dram.perBankRdBursts::1            0                       # Per bank write bursts (Count)
testsys.mem_ctrls.dram.perBankRdBursts::2            0                       # Per bank write bursts (Count)
testsys.mem_ctrls.dram.perBankRdBursts::3            0                       # Per bank write bursts (Count)
testsys.mem_ctrls.dram.perBankRdBursts::4            0                       # Per bank write bursts (Count)
testsys.mem_ctrls.dram.perBankRdBursts::5            0                       # Per bank write bursts (Count)
testsys.mem_ctrls.dram.perBankRdBursts::6            0                       # Per bank write bursts (Count)
testsys.mem_ctrls.dram.perBankRdBursts::7            0                       # Per bank write bursts (Count)
testsys.mem_ctrls.dram.perBankRdBursts::8            0                       # Per bank write bursts (Count)
testsys.mem_ctrls.dram.perBankRdBursts::9            0                       # Per bank write bursts (Count)
testsys.mem_ctrls.dram.perBankRdBursts::10            0                       # Per bank write bursts (Count)
testsys.mem_ctrls.dram.perBankRdBursts::11            0                       # Per bank write bursts (Count)
testsys.mem_ctrls.dram.perBankRdBursts::12            0                       # Per bank write bursts (Count)
testsys.mem_ctrls.dram.perBankRdBursts::13            0                       # Per bank write bursts (Count)
testsys.mem_ctrls.dram.perBankRdBursts::14            0                       # Per bank write bursts (Count)
testsys.mem_ctrls.dram.perBankRdBursts::15            0                       # Per bank write bursts (Count)
testsys.mem_ctrls.dram.perBankWrBursts::0            0                       # Per bank write bursts (Count)
testsys.mem_ctrls.dram.perBankWrBursts::1            0                       # Per bank write bursts (Count)
testsys.mem_ctrls.dram.perBankWrBursts::2            0                       # Per bank write bursts (Count)
testsys.mem_ctrls.dram.perBankWrBursts::3            0                       # Per bank write bursts (Count)
testsys.mem_ctrls.dram.perBankWrBursts::4            0                       # Per bank write bursts (Count)
testsys.mem_ctrls.dram.perBankWrBursts::5            0                       # Per bank write bursts (Count)
testsys.mem_ctrls.dram.perBankWrBursts::6            0                       # Per bank write bursts (Count)
testsys.mem_ctrls.dram.perBankWrBursts::7            0                       # Per bank write bursts (Count)
testsys.mem_ctrls.dram.perBankWrBursts::8            0                       # Per bank write bursts (Count)
testsys.mem_ctrls.dram.perBankWrBursts::9            0                       # Per bank write bursts (Count)
testsys.mem_ctrls.dram.perBankWrBursts::10            0                       # Per bank write bursts (Count)
testsys.mem_ctrls.dram.perBankWrBursts::11            0                       # Per bank write bursts (Count)
testsys.mem_ctrls.dram.perBankWrBursts::12            0                       # Per bank write bursts (Count)
testsys.mem_ctrls.dram.perBankWrBursts::13            0                       # Per bank write bursts (Count)
testsys.mem_ctrls.dram.perBankWrBursts::14            0                       # Per bank write bursts (Count)
testsys.mem_ctrls.dram.perBankWrBursts::15            0                       # Per bank write bursts (Count)
testsys.mem_ctrls.dram.totQLat                      0                       # Total ticks spent queuing (Tick)
testsys.mem_ctrls.dram.totBusLat                    0                       # Total ticks spent in databus transfers (Tick)
testsys.mem_ctrls.dram.totMemAccLat                 0                       # Total ticks spent from burst creation until serviced by the DRAM (Tick)
testsys.mem_ctrls.dram.avgQLat                    nan                       # Average queueing delay per DRAM burst ((Tick/Count))
testsys.mem_ctrls.dram.avgBusLat                  nan                       # Average bus latency per DRAM burst ((Tick/Count))
testsys.mem_ctrls.dram.avgMemAccLat               nan                       # Average memory access latency per DRAM burst ((Tick/Count))
testsys.mem_ctrls.dram.readRowHits                  0                       # Number of row buffer hits during reads (Count)
testsys.mem_ctrls.dram.writeRowHits                 0                       # Number of row buffer hits during writes (Count)
testsys.mem_ctrls.dram.readRowHitRate             nan                       # Row buffer hit rate for reads (Ratio)
testsys.mem_ctrls.dram.writeRowHitRate            nan                       # Row buffer hit rate for writes (Ratio)
testsys.mem_ctrls.dram.bytesRead                    0                       # Total number of bytes read from DRAM (Byte)
testsys.mem_ctrls.dram.bytesWritten                 0                       # Total number of bytes written to DRAM (Byte)
testsys.mem_ctrls.dram.avgRdBW                      0                       # Average DRAM read bandwidth in MiBytes/s ((Byte/Second))
testsys.mem_ctrls.dram.avgWrBW                      0                       # Average DRAM write bandwidth in MiBytes/s ((Byte/Second))
testsys.mem_ctrls.dram.peakBW                12800.00                       # Theoretical peak bandwidth in MiByte/s ((Byte/Second))
testsys.mem_ctrls.dram.busUtil                   0.00                       # Data bus utilization in percentage (Ratio)
testsys.mem_ctrls.dram.busUtilRead               0.00                       # Data bus utilization in percentage for reads (Ratio)
testsys.mem_ctrls.dram.busUtilWrite              0.00                       # Data bus utilization in percentage for writes (Ratio)
testsys.mem_ctrls.dram.pageHitRate                nan                       # Row buffer hit rate, read and write combined (Ratio)
testsys.mem_ctrls.dram.power_state.pwrStateResidencyTicks::UNDEFINED 4266786193000                       # Cumulative time (in ticks) in various power states (Tick)
testsys.mem_ctrls.dram.rank0.actEnergy              0                       # Energy for activate commands per rank (pJ) (Joule)
testsys.mem_ctrls.dram.rank0.preEnergy              0                       # Energy for precharge commands per rank (pJ) (Joule)
testsys.mem_ctrls.dram.rank0.readEnergy             0                       # Energy for read commands per rank (pJ) (Joule)
testsys.mem_ctrls.dram.rank0.writeEnergy            0                       # Energy for write commands per rank (pJ) (Joule)
testsys.mem_ctrls.dram.rank0.refreshEnergy            0                       # Energy for refresh commands per rank (pJ) (Joule)
testsys.mem_ctrls.dram.rank0.actBackEnergy            0                       # Energy for active background per rank (pJ) (Joule)
testsys.mem_ctrls.dram.rank0.preBackEnergy 1440768854400                       # Energy for precharge background per rank (pJ) (Joule)
testsys.mem_ctrls.dram.rank0.actPowerDownEnergy            0                       # Energy for active power-down per rank (pJ) (Joule)
testsys.mem_ctrls.dram.rank0.prePowerDownEnergy            0                       # Energy for precharge power-down per rank (pJ) (Joule)
testsys.mem_ctrls.dram.rank0.selfRefreshEnergy            0                       # Energy for self refresh per rank (pJ) (Joule)
testsys.mem_ctrls.dram.rank0.totalEnergy 1440768854400                       # Total energy per rank (pJ) (Joule)
testsys.mem_ctrls.dram.rank0.averagePower   384.000000                       # Core power per rank (mW) (Watt)
testsys.mem_ctrls.dram.rank0.totalIdleTime            0                       # Total Idle time Per DRAM Rank (Tick)
testsys.mem_ctrls.dram.rank0.pwrStateTime::IDLE 4266786193000                       # Time in different power states (Tick)
testsys.mem_ctrls.dram.rank0.pwrStateTime::REF            0                       # Time in different power states (Tick)
testsys.mem_ctrls.dram.rank0.pwrStateTime::SREF            0                       # Time in different power states (Tick)
testsys.mem_ctrls.dram.rank0.pwrStateTime::PRE_PDN            0                       # Time in different power states (Tick)
testsys.mem_ctrls.dram.rank0.pwrStateTime::ACT            0                       # Time in different power states (Tick)
testsys.mem_ctrls.dram.rank0.pwrStateTime::ACT_PDN            0                       # Time in different power states (Tick)
testsys.mem_ctrls.dram.rank1.actEnergy              0                       # Energy for activate commands per rank (pJ) (Joule)
testsys.mem_ctrls.dram.rank1.preEnergy              0                       # Energy for precharge commands per rank (pJ) (Joule)
testsys.mem_ctrls.dram.rank1.readEnergy             0                       # Energy for read commands per rank (pJ) (Joule)
testsys.mem_ctrls.dram.rank1.writeEnergy            0                       # Energy for write commands per rank (pJ) (Joule)
testsys.mem_ctrls.dram.rank1.refreshEnergy            0                       # Energy for refresh commands per rank (pJ) (Joule)
testsys.mem_ctrls.dram.rank1.actBackEnergy            0                       # Energy for active background per rank (pJ) (Joule)
testsys.mem_ctrls.dram.rank1.preBackEnergy 1440768854400                       # Energy for precharge background per rank (pJ) (Joule)
testsys.mem_ctrls.dram.rank1.actPowerDownEnergy            0                       # Energy for active power-down per rank (pJ) (Joule)
testsys.mem_ctrls.dram.rank1.prePowerDownEnergy            0                       # Energy for precharge power-down per rank (pJ) (Joule)
testsys.mem_ctrls.dram.rank1.selfRefreshEnergy            0                       # Energy for self refresh per rank (pJ) (Joule)
testsys.mem_ctrls.dram.rank1.totalEnergy 1440768854400                       # Total energy per rank (pJ) (Joule)
testsys.mem_ctrls.dram.rank1.averagePower   384.000000                       # Core power per rank (mW) (Watt)
testsys.mem_ctrls.dram.rank1.totalIdleTime            0                       # Total Idle time Per DRAM Rank (Tick)
testsys.mem_ctrls.dram.rank1.pwrStateTime::IDLE 4266786193000                       # Time in different power states (Tick)
testsys.mem_ctrls.dram.rank1.pwrStateTime::REF            0                       # Time in different power states (Tick)
testsys.mem_ctrls.dram.rank1.pwrStateTime::SREF            0                       # Time in different power states (Tick)
testsys.mem_ctrls.dram.rank1.pwrStateTime::PRE_PDN            0                       # Time in different power states (Tick)
testsys.mem_ctrls.dram.rank1.pwrStateTime::ACT            0                       # Time in different power states (Tick)
testsys.mem_ctrls.dram.rank1.pwrStateTime::ACT_PDN            0                       # Time in different power states (Tick)
testsys.mem_ctrls.power_state.pwrStateResidencyTicks::UNDEFINED 4266786193000                       # Cumulative time (in ticks) in various power states (Tick)
testsys.membus.transDist::ReadReq            66656563                       # Transaction distribution (Count)
testsys.membus.transDist::ReadResp           66819781                       # Transaction distribution (Count)
testsys.membus.transDist::WriteReq            8289009                       # Transaction distribution (Count)
testsys.membus.transDist::WriteResp           8289009                       # Transaction distribution (Count)
testsys.membus.transDist::SoftPFReq              3292                       # Transaction distribution (Count)
testsys.membus.transDist::SoftPFExReq          159326                       # Transaction distribution (Count)
testsys.membus.transDist::SoftPFResp           162618                       # Transaction distribution (Count)
testsys.membus.transDist::LoadLockedReq        163218                       # Transaction distribution (Count)
testsys.membus.transDist::StoreCondReq         163194                       # Transaction distribution (Count)
testsys.membus.transDist::StoreCondResp        163194                       # Transaction distribution (Count)
testsys.membus.transDist::CleanSharedReq        28681                       # Transaction distribution (Count)
testsys.membus.transDist::CleanSharedResp        28681                       # Transaction distribution (Count)
testsys.membus.pktCount_testsys.iobridge.mem_side_port::testsys.mem_ctrls.port        73886                       # Packet count per connected requestor and responder (Count)
testsys.membus.pktCount_testsys.iobridge.mem_side_port::total        73886                       # Packet count per connected requestor and responder (Count)
testsys.membus.pktCount_testsys.cpu.icache_port::testsys.mem_ctrls.port    112814642                       # Packet count per connected requestor and responder (Count)
testsys.membus.pktCount_testsys.cpu.icache_port::total    112814642                       # Packet count per connected requestor and responder (Count)
testsys.membus.pktCount_testsys.cpu.dcache_port::testsys.bridge.cpu_side_port         9112                       # Packet count per connected requestor and responder (Count)
testsys.membus.pktCount_testsys.cpu.dcache_port::testsys.realview.gic.pio         1002                       # Packet count per connected requestor and responder (Count)
testsys.membus.pktCount_testsys.cpu.dcache_port::testsys.mem_ctrls.port     37829550                       # Packet count per connected requestor and responder (Count)
testsys.membus.pktCount_testsys.cpu.dcache_port::total     37839664                       # Packet count per connected requestor and responder (Count)
testsys.membus.pktCount_testsys.cpu.mmu.itb.walker.dma::testsys.mem_ctrls.port       148490                       # Packet count per connected requestor and responder (Count)
testsys.membus.pktCount_testsys.cpu.mmu.itb.walker.dma::total       148490                       # Packet count per connected requestor and responder (Count)
testsys.membus.pktCount_testsys.cpu.mmu.dtb.walker.dma::testsys.mem_ctrls.port        49884                       # Packet count per connected requestor and responder (Count)
testsys.membus.pktCount_testsys.cpu.mmu.dtb.walker.dma::total        49884                       # Packet count per connected requestor and responder (Count)
testsys.membus.pktCount::total              150926566                       # Packet count per connected requestor and responder (Count)
testsys.membus.pktSize_testsys.iobridge.mem_side_port::testsys.mem_ctrls.port      2353092                       # Cumulative packet size per connected requestor and responder (Byte)
testsys.membus.pktSize_testsys.iobridge.mem_side_port::total      2353092                       # Cumulative packet size per connected requestor and responder (Byte)
testsys.membus.pktSize_testsys.cpu.icache_port::testsys.mem_ctrls.port    225629284                       # Cumulative packet size per connected requestor and responder (Byte)
testsys.membus.pktSize_testsys.cpu.icache_port::total    225629284                       # Cumulative packet size per connected requestor and responder (Byte)
testsys.membus.pktSize_testsys.cpu.dcache_port::testsys.bridge.cpu_side_port         7008                       # Cumulative packet size per connected requestor and responder (Byte)
testsys.membus.pktSize_testsys.cpu.dcache_port::testsys.realview.gic.pio         2004                       # Cumulative packet size per connected requestor and responder (Byte)
testsys.membus.pktSize_testsys.cpu.dcache_port::testsys.mem_ctrls.port    158874085                       # Cumulative packet size per connected requestor and responder (Byte)
testsys.membus.pktSize_testsys.cpu.dcache_port::total    158883097                       # Cumulative packet size per connected requestor and responder (Byte)
testsys.membus.pktSize_testsys.cpu.mmu.itb.walker.dma::testsys.mem_ctrls.port       593960                       # Cumulative packet size per connected requestor and responder (Byte)
testsys.membus.pktSize_testsys.cpu.mmu.itb.walker.dma::total       593960                       # Cumulative packet size per connected requestor and responder (Byte)
testsys.membus.pktSize_testsys.cpu.mmu.dtb.walker.dma::testsys.mem_ctrls.port       199536                       # Cumulative packet size per connected requestor and responder (Byte)
testsys.membus.pktSize_testsys.cpu.mmu.dtb.walker.dma::total       199536                       # Cumulative packet size per connected requestor and responder (Byte)
testsys.membus.pktSize::total               387658969                       # Cumulative packet size per connected requestor and responder (Byte)
testsys.membus.snoops                               0                       # Total snoops (Count)
testsys.membus.snoopTraffic                         0                       # Total snoop traffic (Byte)
testsys.membus.snoopFanout::samples          75463283                       # Request fanout histogram (Count)
testsys.membus.snoopFanout::mean                    0                       # Request fanout histogram (Count)
testsys.membus.snoopFanout::stdev                   0                       # Request fanout histogram (Count)
testsys.membus.snoopFanout::underflows              0      0.00%      0.00% # Request fanout histogram (Count)
testsys.membus.snoopFanout::0                75463283    100.00%    100.00% # Request fanout histogram (Count)
testsys.membus.snoopFanout::1                       0      0.00%    100.00% # Request fanout histogram (Count)
testsys.membus.snoopFanout::overflows               0      0.00%    100.00% # Request fanout histogram (Count)
testsys.membus.snoopFanout::min_value               0                       # Request fanout histogram (Count)
testsys.membus.snoopFanout::max_value               0                       # Request fanout histogram (Count)
testsys.membus.snoopFanout::total            75463283                       # Request fanout histogram (Count)
testsys.membus.badaddr_responder.power_state.pwrStateResidencyTicks::UNDEFINED 4266786193000                       # Cumulative time (in ticks) in various power states (Tick)
testsys.membus.power_state.pwrStateResidencyTicks::UNDEFINED 4266786193000                       # Cumulative time (in ticks) in various power states (Tick)
testsys.membus.snoop_filter.totRequests         28681                       # Total number of requests made to the snoop filter. (Count)
testsys.membus.snoop_filter.hitSingleRequests            0                       # Number of requests hitting in the snoop filter with a single holder of the requested data. (Count)
testsys.membus.snoop_filter.hitMultiRequests            0                       # Number of requests hitting in the snoop filter with multiple (>1) holders of the requested data. (Count)
testsys.membus.snoop_filter.totSnoops               0                       # Total number of snoops made to the snoop filter. (Count)
testsys.membus.snoop_filter.hitSingleSnoops            0                       # Number of snoops hitting in the snoop filter with a single holder of the requested data. (Count)
testsys.membus.snoop_filter.hitMultiSnoops            0                       # Number of snoops hitting in the snoop filter with multiple (>1) holders of the requested data. (Count)
testsys.pci_ide.disks.IdeDisk.dmaReadFullPages            0                       # Number of full page size DMA reads (not PRD). (Count)
testsys.pci_ide.disks.IdeDisk.dmaReadBytes            0                       # Number of bytes transfered via DMA reads (not PRD). (Byte)
testsys.pci_ide.disks.IdeDisk.dmaReadTxs            0                       # Number of DMA read transactions (not PRD). (Count)
testsys.pci_ide.disks.IdeDisk.dmaWriteFullPages          574                       # Number of full page size DMA writes. (Count)
testsys.pci_ide.disks.IdeDisk.dmaWriteBytes      2351104                       # Number of bytes transfered via DMA writes. (Byte)
testsys.pci_ide.disks.IdeDisk.dmaWriteTxs          574                       # Number of DMA write transactions. (Count)
testsys.pci_ide.power_state.pwrStateResidencyTicks::UNDEFINED 4266786193000                       # Cumulative time (in ticks) in various power states (Tick)
testsys.realview.bootmem.power_state.pwrStateResidencyTicks::UNDEFINED 4266786193000                       # Cumulative time (in ticks) in various power states (Tick)
testsys.realview.clock24MHz.clock               41667                       # Clock period in ticks (Tick)
testsys.realview.clock32KHz.clock            31250000                       # Clock period in ticks (Tick)
testsys.realview.dcc.osc_cpu.clock              16667                       # Clock period in ticks (Tick)
testsys.realview.dcc.osc_ddr.clock              25000                       # Clock period in ticks (Tick)
testsys.realview.dcc.osc_hsbm.clock             25000                       # Clock period in ticks (Tick)
testsys.realview.dcc.osc_pxl.clock              42105                       # Clock period in ticks (Tick)
testsys.realview.dcc.osc_smb.clock              20000                       # Clock period in ticks (Tick)
testsys.realview.dcc.osc_sys.clock              16667                       # Clock period in ticks (Tick)
testsys.realview.el2_watchdog.power_state.pwrStateResidencyTicks::UNDEFINED 4266786193000                       # Cumulative time (in ticks) in various power states (Tick)
testsys.realview.energy_ctrl.power_state.pwrStateResidencyTicks::UNDEFINED 4266786193000                       # Cumulative time (in ticks) in various power states (Tick)
testsys.realview.ethernet.EtherDevice.postedInterrupts            8                       # Number of posts to CPU (Count)
testsys.realview.ethernet.EtherDevice.txBytes          158                       # Bytes Transmitted (Byte)
testsys.realview.ethernet.EtherDevice.rxBytes          158                       # Bytes Received (Byte)
testsys.realview.ethernet.EtherDevice.txPackets            2                       # Number of Packets Transmitted (Count)
testsys.realview.ethernet.EtherDevice.rxPackets            2                       # Number of Packets Received (Count)
testsys.realview.ethernet.EtherDevice.txBandwidth          337                       # Transmit Bandwidth ((Bit/Second))
testsys.realview.ethernet.EtherDevice.rxBandwidth          337                       # Receive Bandwidth ((Bit/Second))
testsys.realview.ethernet.EtherDevice.txIpChecksums            0                       # Number of tx IP Checksums done by device (Count)
testsys.realview.ethernet.EtherDevice.rxIpChecksums            0                       # Number of rx IP Checksums done by device (Count)
testsys.realview.ethernet.EtherDevice.txTcpChecksums            0                       # Number of tx TCP Checksums done by device (Count)
testsys.realview.ethernet.EtherDevice.rxTcpChecksums            0                       # Number of rx TCP Checksums done by device (Count)
testsys.realview.ethernet.EtherDevice.txUdpChecksums            0                       # Number of tx UDP Checksums done by device (Count)
testsys.realview.ethernet.EtherDevice.rxUdpChecksums            0                       # Number of rx UDP Checksums done by device (Count)
testsys.realview.ethernet.EtherDevice.descDmaReads            0                       # Number of descriptors the device read w/ DMA (Count)
testsys.realview.ethernet.EtherDevice.descDmaWrites            0                       # Number of descriptors the device wrote w/ DMA (Count)
testsys.realview.ethernet.EtherDevice.descDmaRdBytes            0                       # Number of descriptor bytes read w/ DMA (Count)
testsys.realview.ethernet.EtherDevice.descDmaWrBytes            0                       # Number of descriptor bytes write w/ DMA (Count)
testsys.realview.ethernet.EtherDevice.totBandwidth          674                       # Total Bandwidth ((Bit/Second))
testsys.realview.ethernet.EtherDevice.totPackets            4                       # Total Packets (Count)
testsys.realview.ethernet.EtherDevice.totBytes          316                       # Total Bytes (Byte)
testsys.realview.ethernet.EtherDevice.totPacketRate            1                       # Total Packet Tranmission Rate ((Count/Second))
testsys.realview.ethernet.EtherDevice.txPacketRate            1                       # Packet Tranmission Rate ((Count/Second))
testsys.realview.ethernet.EtherDevice.rxPacketRate            1                       # Packet Reception Rate ((Count/Second))
testsys.realview.ethernet.EtherDevice.postedSwi            0                       # Number of software interrupts posted to CPU (Count)
testsys.realview.ethernet.EtherDevice.totalSwi            0                       # Total number of Swi written to ISR (Count)
testsys.realview.ethernet.EtherDevice.coalescedSwi            0                       # Average number of Swi's coalesced into each post ((Count/Count))
testsys.realview.ethernet.EtherDevice.postedRxIdle            0                       # Number of rxIdle interrupts posted to CPU (Count)
testsys.realview.ethernet.EtherDevice.totalRxIdle            0                       # Total number of RxIdle written to ISR (Count)
testsys.realview.ethernet.EtherDevice.coalescedRxIdle            0                       # Average number of RxIdle's coalesced into each post ((Count/Count))
testsys.realview.ethernet.EtherDevice.postedRxOk            0                       # Number of RxOk interrupts posted to CPU (Count)
testsys.realview.ethernet.EtherDevice.totalRxOk            0                       # Total number of RxOk written to ISR (Count)
testsys.realview.ethernet.EtherDevice.coalescedRxOk            0                       # Average number of RxOk's coalesced into each post ((Count/Count))
testsys.realview.ethernet.EtherDevice.postedRxDesc            0                       # Number of RxDesc interrupts posted to CPU (Count)
testsys.realview.ethernet.EtherDevice.totalRxDesc            0                       # Total number of RxDesc written to ISR (Count)
testsys.realview.ethernet.EtherDevice.coalescedRxDesc            0                       # Average number of RxDesc's coalesced into each post ((Count/Count))
testsys.realview.ethernet.EtherDevice.postedTxOk            0                       # Number of TxOk interrupts posted to CPU (Count)
testsys.realview.ethernet.EtherDevice.totalTxOk            0                       # Total number of TxOk written to ISR (Count)
testsys.realview.ethernet.EtherDevice.coalescedTxOk            0                       # Average number of TxOk's coalesced into each post ((Count/Count))
testsys.realview.ethernet.EtherDevice.postedTxIdle            0                       # Number of TxIdle interrupts posted to CPU (Count)
testsys.realview.ethernet.EtherDevice.totalTxIdle            0                       # Total number of TxIdle written to ISR (Count)
testsys.realview.ethernet.EtherDevice.coalescedTxIdle            0                       # Average number of TxIdle's coalesced into each post ((Count/Count))
testsys.realview.ethernet.EtherDevice.postedTxDesc            0                       # Number of TxDesc interrupts posted to CPU (Count)
testsys.realview.ethernet.EtherDevice.totalTxDesc            0                       # Total number of TxDesc written to ISR (Count)
testsys.realview.ethernet.EtherDevice.coalescedTxDesc            0                       # Average number of TxDesc's coalesced into each post ((Count/Count))
testsys.realview.ethernet.EtherDevice.postedRxOrn            0                       # Number of RxOrn posted to CPU (Count)
testsys.realview.ethernet.EtherDevice.totalRxOrn            0                       # Total number of RxOrn written to ISR (Count)
testsys.realview.ethernet.EtherDevice.coalescedRxOrn            0                       # Average number of RxOrn's coalesced into each post ((Count/Count))
testsys.realview.ethernet.EtherDevice.coalescedTotal            0                       # Average number of interrupts coalesced into each post ((Count/Count))
testsys.realview.ethernet.EtherDevice.droppedPackets            0                       # Number of packets dropped (Count)
testsys.realview.ethernet.power_state.pwrStateResidencyTicks::UNDEFINED 4266786193000                       # Cumulative time (in ticks) in various power states (Tick)
testsys.realview.flash0.power_state.pwrStateResidencyTicks::UNDEFINED 4266786193000                       # Cumulative time (in ticks) in various power states (Tick)
testsys.realview.flash1.power_state.pwrStateResidencyTicks::UNDEFINED 4266786193000                       # Cumulative time (in ticks) in various power states (Tick)
testsys.realview.generic_timer_mem.frames0.power_state.pwrStateResidencyTicks::UNDEFINED 4266786193000                       # Cumulative time (in ticks) in various power states (Tick)
testsys.realview.generic_timer_mem.frames1.power_state.pwrStateResidencyTicks::UNDEFINED 4266786193000                       # Cumulative time (in ticks) in various power states (Tick)
testsys.realview.generic_timer_mem.power_state.pwrStateResidencyTicks::UNDEFINED 4266786193000                       # Cumulative time (in ticks) in various power states (Tick)
testsys.realview.gic.power_state.pwrStateResidencyTicks::UNDEFINED 4266786193000                       # Cumulative time (in ticks) in various power states (Tick)
testsys.realview.gicv2m.power_state.pwrStateResidencyTicks::UNDEFINED 4266786193000                       # Cumulative time (in ticks) in various power states (Tick)
testsys.realview.io_voltage.voltage          3.300000                       # Voltage in Volts (Volt)
testsys.realview.kmi0.power_state.pwrStateResidencyTicks::UNDEFINED 4266786193000                       # Cumulative time (in ticks) in various power states (Tick)
testsys.realview.kmi1.power_state.pwrStateResidencyTicks::UNDEFINED 4266786193000                       # Cumulative time (in ticks) in various power states (Tick)
testsys.realview.mcc.osc_clcd.clock             42105                       # Clock period in ticks (Tick)
testsys.realview.mcc.osc_mcc.clock              20000                       # Clock period in ticks (Tick)
testsys.realview.mcc.osc_peripheral.clock        41667                       # Clock period in ticks (Tick)
testsys.realview.mcc.osc_system_bus.clock        41667                       # Clock period in ticks (Tick)
testsys.realview.non_trusted_sram.power_state.pwrStateResidencyTicks::UNDEFINED 4266786193000                       # Cumulative time (in ticks) in various power states (Tick)
testsys.realview.pci_host.power_state.pwrStateResidencyTicks::UNDEFINED 4266786193000                       # Cumulative time (in ticks) in various power states (Tick)
testsys.realview.pwr_ctrl.power_state.pwrStateResidencyTicks::UNDEFINED 4266786193000                       # Cumulative time (in ticks) in various power states (Tick)
testsys.realview.realview_io.power_state.pwrStateResidencyTicks::UNDEFINED 4266786193000                       # Cumulative time (in ticks) in various power states (Tick)
testsys.realview.rtc.power_state.pwrStateResidencyTicks::UNDEFINED 4266786193000                       # Cumulative time (in ticks) in various power states (Tick)
testsys.realview.system_watchdog.power_state.pwrStateResidencyTicks::UNDEFINED 4266786193000                       # Cumulative time (in ticks) in various power states (Tick)
testsys.realview.trusted_sram.power_state.pwrStateResidencyTicks::UNDEFINED 4266786193000                       # Cumulative time (in ticks) in various power states (Tick)
testsys.realview.trusted_watchdog.power_state.pwrStateResidencyTicks::UNDEFINED 4266786193000                       # Cumulative time (in ticks) in various power states (Tick)
testsys.realview.uart0.power_state.pwrStateResidencyTicks::UNDEFINED 4266786193000                       # Cumulative time (in ticks) in various power states (Tick)
testsys.realview.uart1.power_state.pwrStateResidencyTicks::UNDEFINED 4266786193000                       # Cumulative time (in ticks) in various power states (Tick)
testsys.realview.uart2.power_state.pwrStateResidencyTicks::UNDEFINED 4266786193000                       # Cumulative time (in ticks) in various power states (Tick)
testsys.realview.uart3.power_state.pwrStateResidencyTicks::UNDEFINED 4266786193000                       # Cumulative time (in ticks) in various power states (Tick)
testsys.realview.vgic.power_state.pwrStateResidencyTicks::UNDEFINED 4266786193000                       # Cumulative time (in ticks) in various power states (Tick)
testsys.realview.vio0.power_state.pwrStateResidencyTicks::UNDEFINED 4266786193000                       # Cumulative time (in ticks) in various power states (Tick)
testsys.realview.vio1.power_state.pwrStateResidencyTicks::UNDEFINED 4266786193000                       # Cumulative time (in ticks) in various power states (Tick)
testsys.realview.vram.power_state.pwrStateResidencyTicks::UNDEFINED 4266786193000                       # Cumulative time (in ticks) in various power states (Tick)
testsys.realview.watchdog.power_state.pwrStateResidencyTicks::UNDEFINED 4266786193000                       # Cumulative time (in ticks) in various power states (Tick)
testsys.voltage_domain.voltage                      1                       # Voltage in Volts (Volt)
testsys.workload.inst.arm                           0                       # number of arm instructions executed (Count)
testsys.workload.inst.quiesce                   23111                       # number of quiesce instructions executed (Count)

---------- End Simulation Statistics   ----------
