file 27393 1620767818                                           
version 2
run ARPTest-0-20210512-00:09:43-3864
attr configname ARPTest
attr datetime 20210512-00:09:43
attr experiment ARPTest
attr inifile omnetpp.ini
attr iterationvars ""
attr iterationvars2 $repetition=0
attr measurement ""
attr network ARPTest
attr processid 3864
attr repetition 0
attr replication #0
attr resultdir results
attr runnumber 0
attr seedset 0
param *.configurator.addStaticRoutes false
param *.micro_router*.energyStorageType "\"IdealEnergyStorage\""
param *.micro_router*.wlan[0].radio.bandwidth 2MHz
param *.micro_router*.wlan[0].radio.carrierFrequency 2GHz
param *.micro_router*.wlan[0].radio.energyConsumer.offPowerConsumption 0mW
param *.micro_router*.wlan[0].radio.energyConsumer.receiverBusyPowerConsumption 5mW
param *.micro_router*.wlan[0].radio.energyConsumer.receiverIdlePowerConsumption 2mW
param *.micro_router*.wlan[0].radio.energyConsumer.receiverReceivingPowerConsumption 10mW
param *.micro_router*.wlan[0].radio.energyConsumer.sleepPowerConsumption 1mW
param *.micro_router*.wlan[0].radio.energyConsumer.switchingPowerConsumption 1mW
param *.micro_router*.wlan[0].radio.energyConsumer.transmitterTransmittingPowerConsumption 100mW
param *.micro_router*.wlan[0].radio.energyConsumerType "\"StateBasedEnergyConsumer\""
param *.micro_router*.wlan[0].radio.receiver.energyDetection -85dBm
param *.micro_router*.wlan[0].radio.receiver.sensitivity -85dBm
param *.micro_router*.wlan[0].radio.receiver.snirThreshold 4dB
param *.micro_router*.wlan[0].radio.transmitter.communicationRange 250m
param *.micro_router*.wlan[0].radio.transmitter.headerBitLength 0b
param *.micro_router*.wlan[0].radio.transmitter.power 1.4mW
param *.micro_router*.wlan[0].radio.transmitter.preambleDuration 10us
param *.micro_router*.wlan[0].radio.typename "\"IdealWirelessNic\""
param *.micro_router*.wlan[0].radioType "\"APSKScalarRadio\""
param ARPTest.micro_router0.routingTable.routingFile "\"whost0.mrt\""
param ARPTest.micro_router1.routingTable.routingFile "\"whost1.mrt\""

vector 15  ARPTest.micro_router0.wlan[0].mac.ctn[0]  state:vector  ETV
attr interpolationmode  none
attr source  stateChanged
attr title  "contention state, vector"
vector 0  ARPTest.micro_router0.energyStorage  powerConsumption:vector  ETV
attr interpolationmode  sample-hold
attr source  powerConsumptionChanged
attr title  "Power consumption, vector"
vector 56  ARPTest.micro_router1.wlan[0].mac.ctn[0]  state:vector  ETV
attr interpolationmode  none
attr source  stateChanged
attr title  "contention state, vector"
vector 41  ARPTest.micro_router1.energyStorage  powerConsumption:vector  ETV
attr interpolationmode  sample-hold
attr source  powerConsumptionChanged
attr title  "Power consumption, vector"
vector 12  ARPTest.micro_router0.wlan[0].radio  radioMode:vector  ETV
attr interpolationmode  sample-hold
attr source  radioModeChanged
attr title  "Radio mode, vector"
vector 53  ARPTest.micro_router1.wlan[0].radio  radioMode:vector  ETV
attr interpolationmode  sample-hold
attr source  radioModeChanged
attr title  "Radio mode, vector"
vector 13  ARPTest.micro_router0.wlan[0].radio  receptionState:vector  ETV
attr interpolationmode  sample-hold
attr source  receptionStateChanged
attr title  "Radio reception state, vector"
vector 54  ARPTest.micro_router1.wlan[0].radio  receptionState:vector  ETV
attr interpolationmode  sample-hold
attr source  receptionStateChanged
attr title  "Radio reception state, vector"
vector 59  ARPTest.micro_router1.eth[0].mac  rxPkOk:vector(packetBytes)  ETV
attr interpolationmode  none
attr source  rxPkOk
attr title  "packets received OK, vector(packetBytes)"
vector 60  ARPTest.micro_router1.eth[0].mac  passedUpPk:vector(packetBytes)  ETV
attr interpolationmode  none
attr source  packetSentToUpper
attr title  "packets passed to higher layer, vector(packetBytes)"
vector 68  ARPTest.micro_router1.eth[0].encap  decapPk:vector(packetBytes)  ETV
attr interpolationmode  none
attr source  decapPk
attr title  "packets decapsulated, vector(packetBytes)"
vector 45  ARPTest.micro_router1.networkLayer.arp  sentReply:vector  ETV
attr title  "ARP replies sent, vector"
vector 67  ARPTest.micro_router1.eth[0].encap  encapPk:vector(packetBytes)  ETV
attr interpolationmode  none
attr source  encapPk
attr title  "packets encapsulated, vector(packetBytes)"
vector 63  ARPTest.micro_router1.eth[0].mac  rxPkFromHL:vector(packetBytes)  ETV
attr interpolationmode  none
attr source  rxPkFromHL
attr title  "packet bytes from higher layer, vector(packetBytes)"
vector 58  ARPTest.micro_router1.eth[0].mac  txPk:vector(packetBytes)  ETV
attr interpolationmode  none
attr source  txPk
attr title  "packets transmitted, vector(packetBytes)"
vector 44  ARPTest.micro_router1.networkLayer.arp  sentReq:vector  ETV
attr title  "ARP request sent, vector"
vector 51  ARPTest.micro_router1.wlan[0].mac  rcvdPkFromHL:vector(packetBytes)  ETV
attr interpolationmode  none
attr source  packetReceivedFromUpper
attr title  "packets received from higher layer, vector(packetBytes)"
vector 50  ARPTest.micro_router1.wlan[0].mac  sentDownPk:vector(packetBytes)  ETV
attr interpolationmode  none
attr source  packetSentToLower
attr title  "packets sent to lower layer, vector(packetBytes)"
vector 43  ARPTest.micro_router1.energyStorage  residualCapacity:vector  ETV
attr interpolationmode  linear
attr source  residualCapacityChanged
attr title  "Residual capacity, vector"
vector 55  ARPTest.micro_router1.wlan[0].radio  transmissionState:vector  ETV
attr interpolationmode  sample-hold
attr source  transmissionStateChanged
attr title  "Radio transmission state, vector"
vector 2  ARPTest.micro_router0.energyStorage  residualCapacity:vector  ETV
attr interpolationmode  linear
attr source  residualCapacityChanged
attr title  "Residual capacity, vector"
vector 11  ARPTest.micro_router0.wlan[0].mac  rcvdPkFromLL:vector(packetBytes)  ETV
attr interpolationmode  none
attr source  packetReceivedFromLower
attr title  "packets received from lower layer, vector(packetBytes)"
vector 8  ARPTest.micro_router0.wlan[0].mac  passedUpPk:vector(packetBytes)  ETV
attr interpolationmode  none
attr source  packetSentToUpper
attr title  "packets passed to higher layer, vector(packetBytes)"
vector 4  ARPTest.micro_router0.networkLayer.arp  sentReply:vector  ETV
attr title  "ARP replies sent, vector"
vector 10  ARPTest.micro_router0.wlan[0].mac  rcvdPkFromHL:vector(packetBytes)  ETV
attr interpolationmode  none
attr source  packetReceivedFromUpper
attr title  "packets received from higher layer, vector(packetBytes)"
vector 9  ARPTest.micro_router0.wlan[0].mac  sentDownPk:vector(packetBytes)  ETV
attr interpolationmode  none
attr source  packetSentToLower
attr title  "packets sent to lower layer, vector(packetBytes)"
vector 14  ARPTest.micro_router0.wlan[0].radio  transmissionState:vector  ETV
attr interpolationmode  sample-hold
attr source  transmissionStateChanged
attr title  "Radio transmission state, vector"
vector 52  ARPTest.micro_router1.wlan[0].mac  rcvdPkFromLL:vector(packetBytes)  ETV
attr interpolationmode  none
attr source  packetReceivedFromLower
attr title  "packets received from lower layer, vector(packetBytes)"
vector 49  ARPTest.micro_router1.wlan[0].mac  passedUpPk:vector(packetBytes)  ETV
attr interpolationmode  none
attr source  packetSentToUpper
attr title  "packets passed to higher layer, vector(packetBytes)"
vector 3  ARPTest.micro_router0.networkLayer.arp  sentReq:vector  ETV
attr title  "ARP request sent, vector"
vector 26  ARPTest.micro_router0.eth[0].encap  encapPk:vector(packetBytes)  ETV
attr interpolationmode  none
attr source  encapPk
attr title  "packets encapsulated, vector(packetBytes)"
vector 22  ARPTest.micro_router0.eth[0].mac  rxPkFromHL:vector(packetBytes)  ETV
attr interpolationmode  none
attr source  rxPkFromHL
attr title  "packet bytes from higher layer, vector(packetBytes)"
vector 17  ARPTest.micro_router0.eth[0].mac  txPk:vector(packetBytes)  ETV
attr interpolationmode  none
attr source  txPk
attr title  "packets transmitted, vector(packetBytes)"
vector 18  ARPTest.micro_router0.eth[0].mac  rxPkOk:vector(packetBytes)  ETV
attr interpolationmode  none
attr source  rxPkOk
attr title  "packets received OK, vector(packetBytes)"
vector 19  ARPTest.micro_router0.eth[0].mac  passedUpPk:vector(packetBytes)  ETV
attr interpolationmode  none
attr source  packetSentToUpper
attr title  "packets passed to higher layer, vector(packetBytes)"
vector 27  ARPTest.micro_router0.eth[0].encap  decapPk:vector(packetBytes)  ETV
attr interpolationmode  none
attr source  decapPk
attr title  "packets decapsulated, vector(packetBytes)"
vector 82  ARPTest.switch1.eth[1].mac  rxPkOk:vector(packetBytes)  ETV
attr interpolationmode  none
attr source  rxPkOk
attr title  "packets received OK, vector(packetBytes)"
vector 83  ARPTest.switch1.eth[1].mac  passedUpPk:vector(packetBytes)  ETV
attr interpolationmode  none
attr source  packetSentToUpper
attr title  "packets passed to higher layer, vector(packetBytes)"
vector 75  ARPTest.switch1.eth[0].mac  rxPkFromHL:vector(packetBytes)  ETV
attr interpolationmode  none
attr source  rxPkFromHL
attr title  "packet bytes from higher layer, vector(packetBytes)"
vector 97  ARPTest.switch1.eth[2].mac  rxPkFromHL:vector(packetBytes)  ETV
attr interpolationmode  none
attr source  rxPkFromHL
attr title  "packet bytes from higher layer, vector(packetBytes)"
vector 70  ARPTest.switch1.eth[0].mac  txPk:vector(packetBytes)  ETV
attr interpolationmode  none
attr source  txPk
attr title  "packets transmitted, vector(packetBytes)"
vector 92  ARPTest.switch1.eth[2].mac  txPk:vector(packetBytes)  ETV
attr interpolationmode  none
attr source  txPk
attr title  "packets transmitted, vector(packetBytes)"
vector 30  ARPTest.micro_router0.eth[1].mac  rxPkOk:vector(packetBytes)  ETV
attr interpolationmode  none
attr source  rxPkOk
attr title  "packets received OK, vector(packetBytes)"
vector 31  ARPTest.micro_router0.eth[1].mac  passedUpPk:vector(packetBytes)  ETV
attr interpolationmode  none
attr source  packetSentToUpper
attr title  "packets passed to higher layer, vector(packetBytes)"
vector 39  ARPTest.micro_router0.eth[1].encap  decapPk:vector(packetBytes)  ETV
attr interpolationmode  none
attr source  decapPk
attr title  "packets decapsulated, vector(packetBytes)"
vector 38  ARPTest.micro_router0.eth[1].encap  encapPk:vector(packetBytes)  ETV
attr interpolationmode  none
attr source  encapPk
attr title  "packets encapsulated, vector(packetBytes)"
vector 34  ARPTest.micro_router0.eth[1].mac  rxPkFromHL:vector(packetBytes)  ETV
attr interpolationmode  none
attr source  rxPkFromHL
attr title  "packet bytes from higher layer, vector(packetBytes)"
vector 29  ARPTest.micro_router0.eth[1].mac  txPk:vector(packetBytes)  ETV
attr interpolationmode  none
attr source  txPk
attr title  "packets transmitted, vector(packetBytes)"
vector 71  ARPTest.switch1.eth[0].mac  rxPkOk:vector(packetBytes)  ETV
attr interpolationmode  none
attr source  rxPkOk
attr title  "packets received OK, vector(packetBytes)"
vector 72  ARPTest.switch1.eth[0].mac  passedUpPk:vector(packetBytes)  ETV
attr interpolationmode  none
attr source  packetSentToUpper
attr title  "packets passed to higher layer, vector(packetBytes)"
vector 86  ARPTest.switch1.eth[1].mac  rxPkFromHL:vector(packetBytes)  ETV
attr interpolationmode  none
attr source  rxPkFromHL
attr title  "packet bytes from higher layer, vector(packetBytes)"
vector 81  ARPTest.switch1.eth[1].mac  txPk:vector(packetBytes)  ETV
attr interpolationmode  none
attr source  txPk
attr title  "packets transmitted, vector(packetBytes)"
0	11584 8 0 0 0 0 1 0 0 0 0
2	11592 1357 457 2106 0.860005516436 3.410381559553 34 -0.006843151415104 -0.001720011032872 -0.093558258047058 0.00034703165137955
3	12949 22 501 501 0.86074564264 0.86074564264 1 1 1 1 1
4	12971 42 464 973 0.860024997917 1.52001088 2 1 1 2 2
8	13013 95 461 643 0.860024997917 0.940597542501 4 56 76 272 18784
9	13108 265 469 2102 0.860254997917 3.410360300294 11 14 76 742 53636
10	13373 252 467 2100 0.860024997917 3.410360300294 10 56 76 728 53440
11	13625 149 461 643 0.860024997917 0.940597542501 6 14 76 300 19176
12	13774 553 0 2107 0 3.410381559553 24 0 3 57 147
13	14327 830 0 2107 0 3.410381559553 35 0 3 36 72
14	15157 1070 470 2107 0.860254997917 3.410381559553 44 0 2 44 66
15	16227 2948 0 2107 0 3.410381559553 124 0 3 160 440
17	19175 111 505 2047 0.86075140264 3.36001664 5 64 64 320 20480
18	19286 103 574 2091 0.90000512 3.41000512 5 0 0 0 0
19	19389 103 574 2091 0.90000512 3.41000512 5 0 0 0 0
22	19492 111 504 2046 0.86074564264 3.36001088 5 64 64 320 20480
26	19603 111 503 2045 0.86074564264 3.36001088 5 20 28 108 2384
27	19714 108 575 2092 0.90000512 3.41000512 5 20 28 108 2384
29	19822 87 977 2096 1.52001664 3.41001088 4 64 64 256 16384
30	19909 87 969 2042 1.52001088 3.36001088 4 64 64 256 16384
31	19996 87 969 2042 1.52001088 3.36001088 4 64 64 256 16384
34	20083 87 976 2095 1.52001088 3.41000512 4 64 64 256 16384
38	20170 87 975 2094 1.52001088 3.41000512 4 20 28 88 1984
39	20257 87 971 2043 1.52001088 3.36001088 4 20 28 88 1984
41	20344 9 0 0 0 0 1 0 0 0 0
43	20353 1393 455 2108 0.86000512 3.410381955989 34 -0.006832758874776 -0.00172001024 -0.093536539309418 0.00034653827168824
44	21746 20 449 449 0.86000512 0.86000512 1 1 1 1 1
45	21766 20 415 415 0.81000512 0.81000512 1 1 1 1 1
49	21786 255 476 2109 0.860274875834 3.410381955989 10 56 76 728 53440
50	22041 146 454 636 0.86000512 0.940575886806 6 14 76 300 19176
51	22187 96 452 633 0.86000512 0.940307377611 4 56 76 272 18784
52	22283 279 476 2109 0.860274875834 3.410381955989 11 14 76 742 53636
53	22562 302 0 641 0 0.940597146065 14 0 3 32 82
54	22864 830 0 2108 0 3.410381955989 35 0 3 51 117
55	23694 568 455 641 0.86000512 0.940597146065 24 0 2 24 36
56	24262 2142 0 2108 0 3.410381955989 92 0 3 70 186
58	26404 46 419 621 0.81001088 0.940029572732 2 64 64 128 8192
59	26450 40 412 447 0.81000512 0.86000512 2 0 0 0 0
60	26490 40 412 447 0.81000512 0.86000512 2 0 0 0 0
63	26530 46 418 620 0.81000512 0.940023812732 2 64 64 128 8192
67	26576 46 417 619 0.81000512 0.940023812732 2 20 28 48 1184
68	26622 42 413 448 0.81000512 0.86000512 2 20 28 48 1184
70	26664 87 960 2035 1.51001088 3.35001088 4 64 64 256 16384
71	26751 87 985 2119 1.53001664 3.42001088 4 64 64 256 16384
72	26838 87 985 2119 1.53001664 3.42001088 4 64 64 256 16384
75	26925 87 957 2033 1.51000512 3.35000512 4 64 64 256 16384
81	27012 86 989 2123 1.5300224 3.42001664 4 64 64 256 16384
82	27098 83 955 2031 1.51000512 3.35000512 4 0 0 0 0
83	27181 83 955 2031 1.51000512 3.35000512 4 0 0 0 0
86	27264 87 987 2121 1.53001664 3.42001088 4 64 64 256 16384
92	27351 21 961 961 1.51001088 1.51001088 1 64 64 64 4096
97	27372 21 958 958 1.51000512 1.51000512 1 64 64 64 4096
