version 2
run ARPTest-0-20210512-00:09:43-3864
attr configname ARPTest
attr datetime 20210512-00:09:43
attr experiment ARPTest
attr inifile omnetpp.ini
attr iterationvars ""
attr iterationvars2 $repetition=0
attr measurement ""
attr network ARPTest
attr processid 3864
attr repetition 0
attr replication #0
attr resultdir results
attr runnumber 0
attr seedset 0
param *.configurator.addStaticRoutes false
param *.micro_router*.energyStorageType "\"IdealEnergyStorage\""
param *.micro_router*.wlan[0].radio.bandwidth 2MHz
param *.micro_router*.wlan[0].radio.carrierFrequency 2GHz
param *.micro_router*.wlan[0].radio.energyConsumer.offPowerConsumption 0mW
param *.micro_router*.wlan[0].radio.energyConsumer.receiverBusyPowerConsumption 5mW
param *.micro_router*.wlan[0].radio.energyConsumer.receiverIdlePowerConsumption 2mW
param *.micro_router*.wlan[0].radio.energyConsumer.receiverReceivingPowerConsumption 10mW
param *.micro_router*.wlan[0].radio.energyConsumer.sleepPowerConsumption 1mW
param *.micro_router*.wlan[0].radio.energyConsumer.switchingPowerConsumption 1mW
param *.micro_router*.wlan[0].radio.energyConsumer.transmitterTransmittingPowerConsumption 100mW
param *.micro_router*.wlan[0].radio.energyConsumerType "\"StateBasedEnergyConsumer\""
param *.micro_router*.wlan[0].radio.receiver.energyDetection -85dBm
param *.micro_router*.wlan[0].radio.receiver.sensitivity -85dBm
param *.micro_router*.wlan[0].radio.receiver.snirThreshold 4dB
param *.micro_router*.wlan[0].radio.transmitter.communicationRange 250m
param *.micro_router*.wlan[0].radio.transmitter.headerBitLength 0b
param *.micro_router*.wlan[0].radio.transmitter.power 1.4mW
param *.micro_router*.wlan[0].radio.transmitter.preambleDuration 10us
param *.micro_router*.wlan[0].radio.typename "\"IdealWirelessNic\""
param *.micro_router*.wlan[0].radioType "\"APSKScalarRadio\""
param ARPTest.micro_router0.routingTable.routingFile "\"whost0.mrt\""
param ARPTest.micro_router1.routingTable.routingFile "\"whost1.mrt\""

vector 15  ARPTest.micro_router0.wlan[0].mac.ctn[0]  state:vector  ETV
attr interpolationmode  none
attr source  stateChanged
attr title  "contention state, vector"
vector 0  ARPTest.micro_router0.energyStorage  powerConsumption:vector  ETV
attr interpolationmode  sample-hold
attr source  powerConsumptionChanged
attr title  "Power consumption, vector"
vector 56  ARPTest.micro_router1.wlan[0].mac.ctn[0]  state:vector  ETV
attr interpolationmode  none
attr source  stateChanged
attr title  "contention state, vector"
vector 41  ARPTest.micro_router1.energyStorage  powerConsumption:vector  ETV
attr interpolationmode  sample-hold
attr source  powerConsumptionChanged
attr title  "Power consumption, vector"
vector 12  ARPTest.micro_router0.wlan[0].radio  radioMode:vector  ETV
attr interpolationmode  sample-hold
attr source  radioModeChanged
attr title  "Radio mode, vector"
vector 53  ARPTest.micro_router1.wlan[0].radio  radioMode:vector  ETV
attr interpolationmode  sample-hold
attr source  radioModeChanged
attr title  "Radio mode, vector"
vector 13  ARPTest.micro_router0.wlan[0].radio  receptionState:vector  ETV
attr interpolationmode  sample-hold
attr source  receptionStateChanged
attr title  "Radio reception state, vector"
vector 54  ARPTest.micro_router1.wlan[0].radio  receptionState:vector  ETV
attr interpolationmode  sample-hold
attr source  receptionStateChanged
attr title  "Radio reception state, vector"
vector 59  ARPTest.micro_router1.eth[0].mac  rxPkOk:vector(packetBytes)  ETV
attr interpolationmode  none
attr source  rxPkOk
attr title  "packets received OK, vector(packetBytes)"
vector 60  ARPTest.micro_router1.eth[0].mac  passedUpPk:vector(packetBytes)  ETV
attr interpolationmode  none
attr source  packetSentToUpper
attr title  "packets passed to higher layer, vector(packetBytes)"
vector 68  ARPTest.micro_router1.eth[0].encap  decapPk:vector(packetBytes)  ETV
attr interpolationmode  none
attr source  decapPk
attr title  "packets decapsulated, vector(packetBytes)"
vector 45  ARPTest.micro_router1.networkLayer.arp  sentReply:vector  ETV
attr title  "ARP replies sent, vector"
vector 67  ARPTest.micro_router1.eth[0].encap  encapPk:vector(packetBytes)  ETV
attr interpolationmode  none
attr source  encapPk
attr title  "packets encapsulated, vector(packetBytes)"
vector 63  ARPTest.micro_router1.eth[0].mac  rxPkFromHL:vector(packetBytes)  ETV
attr interpolationmode  none
attr source  rxPkFromHL
attr title  "packet bytes from higher layer, vector(packetBytes)"
vector 58  ARPTest.micro_router1.eth[0].mac  txPk:vector(packetBytes)  ETV
attr interpolationmode  none
attr source  txPk
attr title  "packets transmitted, vector(packetBytes)"
vector 44  ARPTest.micro_router1.networkLayer.arp  sentReq:vector  ETV
attr title  "ARP request sent, vector"
vector 51  ARPTest.micro_router1.wlan[0].mac  rcvdPkFromHL:vector(packetBytes)  ETV
attr interpolationmode  none
attr source  packetReceivedFromUpper
attr title  "packets received from higher layer, vector(packetBytes)"
vector 50  ARPTest.micro_router1.wlan[0].mac  sentDownPk:vector(packetBytes)  ETV
attr interpolationmode  none
attr source  packetSentToLower
attr title  "packets sent to lower layer, vector(packetBytes)"
vector 43  ARPTest.micro_router1.energyStorage  residualCapacity:vector  ETV
attr interpolationmode  linear
attr source  residualCapacityChanged
attr title  "Residual capacity, vector"
vector 55  ARPTest.micro_router1.wlan[0].radio  transmissionState:vector  ETV
attr interpolationmode  sample-hold
attr source  transmissionStateChanged
attr title  "Radio transmission state, vector"
vector 2  ARPTest.micro_router0.energyStorage  residualCapacity:vector  ETV
attr interpolationmode  linear
attr source  residualCapacityChanged
attr title  "Residual capacity, vector"
vector 11  ARPTest.micro_router0.wlan[0].mac  rcvdPkFromLL:vector(packetBytes)  ETV
attr interpolationmode  none
attr source  packetReceivedFromLower
attr title  "packets received from lower layer, vector(packetBytes)"
vector 8  ARPTest.micro_router0.wlan[0].mac  passedUpPk:vector(packetBytes)  ETV
attr interpolationmode  none
attr source  packetSentToUpper
attr title  "packets passed to higher layer, vector(packetBytes)"
vector 4  ARPTest.micro_router0.networkLayer.arp  sentReply:vector  ETV
attr title  "ARP replies sent, vector"
vector 10  ARPTest.micro_router0.wlan[0].mac  rcvdPkFromHL:vector(packetBytes)  ETV
attr interpolationmode  none
attr source  packetReceivedFromUpper
attr title  "packets received from higher layer, vector(packetBytes)"
vector 9  ARPTest.micro_router0.wlan[0].mac  sentDownPk:vector(packetBytes)  ETV
attr interpolationmode  none
attr source  packetSentToLower
attr title  "packets sent to lower layer, vector(packetBytes)"
vector 14  ARPTest.micro_router0.wlan[0].radio  transmissionState:vector  ETV
attr interpolationmode  sample-hold
attr source  transmissionStateChanged
attr title  "Radio transmission state, vector"
vector 52  ARPTest.micro_router1.wlan[0].mac  rcvdPkFromLL:vector(packetBytes)  ETV
attr interpolationmode  none
attr source  packetReceivedFromLower
attr title  "packets received from lower layer, vector(packetBytes)"
vector 49  ARPTest.micro_router1.wlan[0].mac  passedUpPk:vector(packetBytes)  ETV
attr interpolationmode  none
attr source  packetSentToUpper
attr title  "packets passed to higher layer, vector(packetBytes)"
vector 3  ARPTest.micro_router0.networkLayer.arp  sentReq:vector  ETV
attr title  "ARP request sent, vector"
vector 26  ARPTest.micro_router0.eth[0].encap  encapPk:vector(packetBytes)  ETV
attr interpolationmode  none
attr source  encapPk
attr title  "packets encapsulated, vector(packetBytes)"
vector 22  ARPTest.micro_router0.eth[0].mac  rxPkFromHL:vector(packetBytes)  ETV
attr interpolationmode  none
attr source  rxPkFromHL
attr title  "packet bytes from higher layer, vector(packetBytes)"
vector 17  ARPTest.micro_router0.eth[0].mac  txPk:vector(packetBytes)  ETV
attr interpolationmode  none
attr source  txPk
attr title  "packets transmitted, vector(packetBytes)"
vector 18  ARPTest.micro_router0.eth[0].mac  rxPkOk:vector(packetBytes)  ETV
attr interpolationmode  none
attr source  rxPkOk
attr title  "packets received OK, vector(packetBytes)"
vector 19  ARPTest.micro_router0.eth[0].mac  passedUpPk:vector(packetBytes)  ETV
attr interpolationmode  none
attr source  packetSentToUpper
attr title  "packets passed to higher layer, vector(packetBytes)"
vector 27  ARPTest.micro_router0.eth[0].encap  decapPk:vector(packetBytes)  ETV
attr interpolationmode  none
attr source  decapPk
attr title  "packets decapsulated, vector(packetBytes)"
vector 82  ARPTest.switch1.eth[1].mac  rxPkOk:vector(packetBytes)  ETV
attr interpolationmode  none
attr source  rxPkOk
attr title  "packets received OK, vector(packetBytes)"
vector 83  ARPTest.switch1.eth[1].mac  passedUpPk:vector(packetBytes)  ETV
attr interpolationmode  none
attr source  packetSentToUpper
attr title  "packets passed to higher layer, vector(packetBytes)"
vector 75  ARPTest.switch1.eth[0].mac  rxPkFromHL:vector(packetBytes)  ETV
attr interpolationmode  none
attr source  rxPkFromHL
attr title  "packet bytes from higher layer, vector(packetBytes)"
vector 97  ARPTest.switch1.eth[2].mac  rxPkFromHL:vector(packetBytes)  ETV
attr interpolationmode  none
attr source  rxPkFromHL
attr title  "packet bytes from higher layer, vector(packetBytes)"
vector 70  ARPTest.switch1.eth[0].mac  txPk:vector(packetBytes)  ETV
attr interpolationmode  none
attr source  txPk
attr title  "packets transmitted, vector(packetBytes)"
vector 92  ARPTest.switch1.eth[2].mac  txPk:vector(packetBytes)  ETV
attr interpolationmode  none
attr source  txPk
attr title  "packets transmitted, vector(packetBytes)"
vector 30  ARPTest.micro_router0.eth[1].mac  rxPkOk:vector(packetBytes)  ETV
attr interpolationmode  none
attr source  rxPkOk
attr title  "packets received OK, vector(packetBytes)"
vector 31  ARPTest.micro_router0.eth[1].mac  passedUpPk:vector(packetBytes)  ETV
attr interpolationmode  none
attr source  packetSentToUpper
attr title  "packets passed to higher layer, vector(packetBytes)"
vector 39  ARPTest.micro_router0.eth[1].encap  decapPk:vector(packetBytes)  ETV
attr interpolationmode  none
attr source  decapPk
attr title  "packets decapsulated, vector(packetBytes)"
vector 38  ARPTest.micro_router0.eth[1].encap  encapPk:vector(packetBytes)  ETV
attr interpolationmode  none
attr source  encapPk
attr title  "packets encapsulated, vector(packetBytes)"
vector 34  ARPTest.micro_router0.eth[1].mac  rxPkFromHL:vector(packetBytes)  ETV
attr interpolationmode  none
attr source  rxPkFromHL
attr title  "packet bytes from higher layer, vector(packetBytes)"
vector 29  ARPTest.micro_router0.eth[1].mac  txPk:vector(packetBytes)  ETV
attr interpolationmode  none
attr source  txPk
attr title  "packets transmitted, vector(packetBytes)"
vector 71  ARPTest.switch1.eth[0].mac  rxPkOk:vector(packetBytes)  ETV
attr interpolationmode  none
attr source  rxPkOk
attr title  "packets received OK, vector(packetBytes)"
vector 72  ARPTest.switch1.eth[0].mac  passedUpPk:vector(packetBytes)  ETV
attr interpolationmode  none
attr source  packetSentToUpper
attr title  "packets passed to higher layer, vector(packetBytes)"
vector 86  ARPTest.switch1.eth[1].mac  rxPkFromHL:vector(packetBytes)  ETV
attr interpolationmode  none
attr source  rxPkFromHL
attr title  "packet bytes from higher layer, vector(packetBytes)"
vector 81  ARPTest.switch1.eth[1].mac  txPk:vector(packetBytes)  ETV
attr interpolationmode  none
attr source  txPk
attr title  "packets transmitted, vector(packetBytes)"
0	0	0	0
2	457	0.860005516436	-0.001720011032872
2	460	0.860024997917	-0.001720205847682
2	470	0.860254997917	-0.001720665847682
2	473	0.860274479398	-0.001722613995782
2	485	0.86028527227	-0.001722635581526
2	488	0.860297346344	-0.001722756322266
2	495	0.860727346344	-0.001723616322266
2	498	0.86074564264	-0.001723799285226
2	508	0.86075564264	-0.001723819285226
2	511	0.860767716714	-0.001725026692626
2	523	0.862729932323	-0.001728951123844
2	526	0.862751191582	-0.001729163716434
2	536	0.863975113215	-0.0017316115597
2	539	0.863996372474	-0.0017337374856
2	610	0.94000512	-0.001885754980652
2	613	0.940023416296	-0.001887584610252
2	626	0.940034209168	-0.001887606195996
2	629	0.940046283242	-0.001887726936736
2	639	0.940576283242	-0.001888786936736
2	642	0.940597542501	-0.001888999529326
2	652	0.941492793026	-0.001890790030376
2	655	0.941514052285	-0.001892915956276
2	1041	1.591928087607	-0.00319374402692
2	1044	1.591949346866	-0.00319586995282
2	1085	1.633963745167	-0.003279898749422
2	1088	1.633985004426	-0.003282024675322
2	1178	1.742655354608	-0.003499365375686
2	1181	1.742676613867	-0.003501491301586
2	1222	1.782845342819	-0.00358182875949
2	1225	1.782866602078	-0.00358395468539
2	2054	3.364638863166	-0.006747499207566
2	2057	3.364660122425	-0.006749625133466
2	2103	3.410360300294	-0.006841025489204
2	2106	3.410381559553	-0.006843151415104
3	501	0.86074564264	1
4	464	0.860024997917	1
4	973	1.52001088	1
8	461	0.860024997917	64
8	499	0.86074564264	56
8	527	0.862751191582	76
8	643	0.940597542501	76
9	469	0.860254997917	64
9	507	0.86075564264	14
9	535	0.863975113215	76
9	609	0.94000512	56
9	651	0.941492793026	76
9	1040	1.591928087607	76
9	1084	1.633963745167	76
9	1177	1.742655354608	76
9	1221	1.782845342819	76
9	2053	3.364638863166	76
9	2102	3.410360300294	76
10	467	0.860024997917	64
10	533	0.863975113215	76
10	607	0.94000512	56
10	649	0.941492793026	76
10	1038	1.591928087607	76
10	1082	1.633963745167	76
10	1175	1.742655354608	76
10	1219	1.782845342819	76
10	2051	3.364638863166	76
10	2100	3.410360300294	76
11	461	0.860024997917	64
11	489	0.860297346344	14
11	499	0.86074564264	56
11	527	0.862751191582	76
11	630	0.940046283242	14
11	643	0.940597542501	76
12	0	0	0
12	0	0	2
12	470	0.860254997917	3
12	474	0.860274479398	2
12	508	0.86075564264	3
12	512	0.860767716714	2
12	536	0.863975113215	3
12	540	0.863996372474	2
12	610	0.94000512	3
12	614	0.940023416296	2
12	652	0.941492793026	3
12	656	0.941514052285	2
12	1041	1.591928087607	3
12	1045	1.591949346866	2
12	1085	1.633963745167	3
12	1089	1.633985004426	2
12	1178	1.742655354608	3
12	1182	1.742676613867	2
12	1222	1.782845342819	3
12	1226	1.782866602078	2
12	2054	3.364638863166	3
12	2058	3.364660122425	2
12	2103	3.410360300294	3
12	2107	3.410381559553	2
13	0	0	1
13	457	0.860005516436	3
13	460	0.860024997917	1
13	470	0.860254997917	0
13	474	0.860274479398	1
13	485	0.86028527227	3
13	488	0.860297346344	1
13	495	0.860727346344	3
13	498	0.86074564264	1
13	508	0.86075564264	0
13	512	0.860767716714	1
13	523	0.862729932323	3
13	526	0.862751191582	1
13	536	0.863975113215	0
13	540	0.863996372474	1
13	610	0.94000512	0
13	614	0.940023416296	1
13	626	0.940034209168	3
13	629	0.940046283242	1
13	639	0.940576283242	3
13	642	0.940597542501	1
13	652	0.941492793026	0
13	656	0.941514052285	1
13	1041	1.591928087607	0
13	1045	1.591949346866	1
13	1085	1.633963745167	0
13	1089	1.633985004426	1
13	1178	1.742655354608	0
13	1182	1.742676613867	1
13	1222	1.782845342819	0
13	1226	1.782866602078	1
13	2054	3.364638863166	0
13	2058	3.364660122425	1
13	2103	3.410360300294	0
13	2107	3.410381559553	1
14	470	0.860254997917	1
14	471	0.860254997917	2
14	473	0.860274479398	1
14	474	0.860274479398	0
14	508	0.86075564264	1
14	509	0.86075564264	2
14	511	0.860767716714	1
14	512	0.860767716714	0
14	536	0.863975113215	1
14	537	0.863975113215	2
14	539	0.863996372474	1
14	540	0.863996372474	0
14	610	0.94000512	1
14	611	0.94000512	2
14	613	0.940023416296	1
14	614	0.940023416296	0
14	652	0.941492793026	1
14	653	0.941492793026	2
14	655	0.941514052285	1
14	656	0.941514052285	0
14	1041	1.591928087607	1
14	1042	1.591928087607	2
14	1044	1.591949346866	1
14	1045	1.591949346866	0
14	1085	1.633963745167	1
14	1086	1.633963745167	2
14	1088	1.633985004426	1
14	1089	1.633985004426	0
14	1178	1.742655354608	1
14	1179	1.742655354608	2
14	1181	1.742676613867	1
14	1182	1.742676613867	0
14	1222	1.782845342819	1
14	1223	1.782845342819	2
14	1225	1.782866602078	1
14	1226	1.782866602078	0
14	2054	3.364638863166	1
14	2055	3.364638863166	2
14	2057	3.364660122425	1
14	2058	3.364660122425	0
14	2103	3.410360300294	1
14	2104	3.410360300294	2
14	2106	3.410381559553	1
14	2107	3.410381559553	0
15	0	0	0
15	0	0	0
15	0	0	0
15	0	0	0
15	457	0.860005516436	0
15	457	0.860005516436	0
15	460	0.860024997917	0
15	460	0.860024997917	0
15	467	0.860024997917	0
15	467	0.860024997917	2
15	468	0.860254997917	2
15	468	0.860254997917	3
15	470	0.860254997917	3
15	470	0.860254997917	3
15	489	0.860297346344	3
15	489	0.860297346344	0
15	490	0.860588479398	0
15	490	0.860588479398	0
15	495	0.860727346344	0
15	495	0.860727346344	0
15	498	0.86074564264	0
15	498	0.86074564264	0
15	508	0.86075564264	0
15	508	0.86075564264	0
15	512	0.860767716714	0
15	512	0.860767716714	0
15	523	0.862729932323	0
15	523	0.862729932323	0
15	526	0.862751191582	0
15	526	0.862751191582	0
15	533	0.863975113215	0
15	533	0.863975113215	2
15	534	0.863975113215	2
15	534	0.863975113215	3
15	536	0.863975113215	3
15	536	0.863975113215	3
15	539	0.863996372474	3
15	539	0.863996372474	0
15	540	0.863996372474	0
15	540	0.863996372474	0
15	607	0.94000512	0
15	607	0.94000512	2
15	608	0.94000512	2
15	608	0.94000512	3
15	610	0.94000512	3
15	610	0.94000512	3
15	630	0.940046283242	3
15	630	0.940046283242	0
15	634	0.940337416296	0
15	634	0.940337416296	0
15	639	0.940576283242	0
15	639	0.940576283242	0
15	642	0.940597542501	0
15	642	0.940597542501	0
15	649	0.941492793026	0
15	649	0.941492793026	2
15	650	0.941492793026	2
15	650	0.941492793026	3
15	652	0.941492793026	3
15	652	0.941492793026	3
15	655	0.941514052285	3
15	655	0.941514052285	0
15	656	0.941514052285	0
15	656	0.941514052285	0
15	1038	1.591928087607	0
15	1038	1.591928087607	2
15	1039	1.591928087607	2
15	1039	1.591928087607	3
15	1041	1.591928087607	3
15	1041	1.591928087607	3
15	1044	1.591949346866	3
15	1044	1.591949346866	0
15	1045	1.591949346866	0
15	1045	1.591949346866	0
15	1082	1.633963745167	0
15	1082	1.633963745167	2
15	1083	1.633963745167	2
15	1083	1.633963745167	3
15	1085	1.633963745167	3
15	1085	1.633963745167	3
15	1088	1.633985004426	3
15	1088	1.633985004426	0
15	1089	1.633985004426	0
15	1089	1.633985004426	0
15	1175	1.742655354608	0
15	1175	1.742655354608	2
15	1176	1.742655354608	2
15	1176	1.742655354608	3
15	1178	1.742655354608	3
15	1178	1.742655354608	3
15	1181	1.742676613867	3
15	1181	1.742676613867	0
15	1182	1.742676613867	0
15	1182	1.742676613867	0
15	1219	1.782845342819	0
15	1219	1.782845342819	2
15	1220	1.782845342819	2
15	1220	1.782845342819	3
15	1222	1.782845342819	3
15	1222	1.782845342819	3
15	1225	1.782866602078	3
15	1225	1.782866602078	0
15	1226	1.782866602078	0
15	1226	1.782866602078	0
15	2051	3.364638863166	0
15	2051	3.364638863166	2
15	2052	3.364638863166	2
15	2052	3.364638863166	3
15	2054	3.364638863166	3
15	2054	3.364638863166	3
15	2057	3.364660122425	3
15	2057	3.364660122425	0
15	2058	3.364660122425	0
15	2058	3.364660122425	0
15	2100	3.410360300294	0
15	2100	3.410360300294	2
15	2101	3.410360300294	2
15	2101	3.410360300294	3
15	2103	3.410360300294	3
15	2103	3.410360300294	3
15	2106	3.410381559553	3
15	2106	3.410381559553	0
15	2107	3.410381559553	0
15	2107	3.410381559553	0
17	505	0.86075140264	64
17	580	0.90001088	64
17	1034	1.59001664	64
17	1171	1.74001664	64
17	2047	3.36001664	64
18	574	0.90000512	0
18	603	0.94000512	0
18	1073	1.63000512	0
18	1210	1.78000512	0
18	2091	3.41000512	0
19	574	0.90000512	0
19	603	0.94000512	0
19	1073	1.63000512	0
19	1210	1.78000512	0
19	2091	3.41000512	0
22	504	0.86074564264	64
22	579	0.90000512	64
22	1033	1.59001088	64
22	1170	1.74001088	64
22	2046	3.36001088	64
26	503	0.86074564264	28
26	578	0.90000512	20
26	1032	1.59001088	20
26	1169	1.74001088	20
26	2045	3.36001088	20
27	575	0.90000512	28
27	604	0.94000512	20
27	1074	1.63000512	20
27	1211	1.78000512	20
27	2092	3.41000512	20
29	977	1.52001664	64
29	1078	1.63001088	64
29	1215	1.78001088	64
29	2096	3.41001088	64
30	969	1.52001088	64
30	1029	1.59001088	64
30	1166	1.74001088	64
30	2042	3.36001088	64
31	969	1.52001088	64
31	1029	1.59001088	64
31	1166	1.74001088	64
31	2042	3.36001088	64
34	976	1.52001088	64
34	1077	1.63000512	64
34	1214	1.78000512	64
34	2095	3.41000512	64
38	975	1.52001088	28
38	1076	1.63000512	20
38	1213	1.78000512	20
38	2094	3.41000512	20
39	971	1.52001088	28
39	1030	1.59001088	20
39	1167	1.74001088	20
39	2043	3.36001088	20
41	0	0	0
43	455	0.86000512	-0.00172001024
43	458	0.860024601481	-0.0017219583881
43	472	0.860255394353	-0.001722419973844
43	475	0.860274875834	-0.001722614788654
43	483	0.860284875834	-0.001722634788654
43	486	0.860296949908	-0.001723842196054
43	493	0.860726949908	-0.001724702196054
43	496	0.860745246204	-0.001726531825654
43	510	0.860756039076	-0.001726553411398
43	513	0.86076811315	-0.001726674152138
43	521	0.862729535887	-0.001730596997612
43	524	0.862750795146	-0.001732722923512
43	538	0.863975509651	-0.001735172352522
43	541	0.86399676891	-0.001735384945112
43	612	0.940005516436	-0.001887402440164
43	615	0.940023812732	-0.001887585403124
43	624	0.940033812732	-0.001887605403124
43	627	0.940045886806	-0.001888812810524
43	637	0.940575886806	-0.001889872810524
43	640	0.940597146065	-0.001891998736424
43	654	0.941493189462	-0.001893790823218
43	657	0.941514448721	-0.001894003415808
43	1043	1.591928484043	-0.003194831486452
43	1046	1.591949743302	-0.003195044079042
43	1087	1.633964141603	-0.003279072875644
43	1090	1.633985400862	-0.003279285468234
43	1180	1.742655751044	-0.003496626168598
43	1183	1.742677010303	-0.003496838761188
43	1224	1.782845739255	-0.003577176219092
43	1227	1.782866998514	-0.003577388811682
43	2056	3.364639259602	-0.006740933333858
43	2059	3.364660518861	-0.006741145926448
43	2105	3.41036069673	-0.006832546282186
43	2108	3.410381955989	-0.006832758874776
44	449	0.86000512	1
45	415	0.81000512	1
49	476	0.860274875834	64
49	542	0.86399676891	76
49	616	0.940023812732	56
49	658	0.941514448721	76
49	1047	1.591949743302	76
49	1091	1.633985400862	76
49	1184	1.742677010303	76
49	1228	1.782866998514	76
49	2060	3.364660518861	76
49	2109	3.410381955989	76
50	454	0.86000512	64
50	482	0.860284875834	14
50	492	0.860726949908	56
50	520	0.862729535887	76
50	623	0.940033812732	14
50	636	0.940575886806	76
51	452	0.86000512	64
51	481	0.860274875834	56
51	518	0.862729535887	76
51	633	0.940307377611	76
52	476	0.860274875834	64
52	514	0.86076811315	14
52	542	0.86399676891	76
52	616	0.940023812732	56
52	658	0.941514448721	76
52	1047	1.591949743302	76
52	1091	1.633985400862	76
52	1184	1.742677010303	76
52	1228	1.782866998514	76
52	2060	3.364660518861	76
52	2109	3.410381955989	76
53	0	0	0
53	0	0	2
53	455	0.86000512	3
53	459	0.860024601481	2
53	483	0.860284875834	3
53	487	0.860296949908	2
53	493	0.860726949908	3
53	497	0.860745246204	2
53	521	0.862729535887	3
53	525	0.862750795146	2
53	624	0.940033812732	3
53	628	0.940045886806	2
53	637	0.940575886806	3
53	641	0.940597146065	2
54	0	0	1
54	455	0.86000512	0
54	459	0.860024601481	1
54	472	0.860255394353	3
54	475	0.860274875834	1
54	483	0.860284875834	0
54	487	0.860296949908	1
54	493	0.860726949908	0
54	497	0.860745246204	1
54	510	0.860756039076	3
54	513	0.86076811315	1
54	521	0.862729535887	0
54	525	0.862750795146	1
54	538	0.863975509651	3
54	541	0.86399676891	1
54	612	0.940005516436	3
54	615	0.940023812732	1
54	624	0.940033812732	0
54	628	0.940045886806	1
54	637	0.940575886806	0
54	641	0.940597146065	1
54	654	0.941493189462	3
54	657	0.941514448721	1
54	1043	1.591928484043	3
54	1046	1.591949743302	1
54	1087	1.633964141603	3
54	1090	1.633985400862	1
54	1180	1.742655751044	3
54	1183	1.742677010303	1
54	1224	1.782845739255	3
54	1227	1.782866998514	1
54	2056	3.364639259602	3
54	2059	3.364660518861	1
54	2105	3.41036069673	3
54	2108	3.410381955989	1
55	455	0.86000512	1
55	456	0.86000512	2
55	458	0.860024601481	1
55	459	0.860024601481	0
55	483	0.860284875834	1
55	484	0.860284875834	2
55	486	0.860296949908	1
55	487	0.860296949908	0
55	493	0.860726949908	1
55	494	0.860726949908	2
55	496	0.860745246204	1
55	497	0.860745246204	0
55	521	0.862729535887	1
55	522	0.862729535887	2
55	524	0.862750795146	1
55	525	0.862750795146	0
55	624	0.940033812732	1
55	625	0.940033812732	2
55	627	0.940045886806	1
55	628	0.940045886806	0
55	637	0.940575886806	1
55	638	0.940575886806	2
55	640	0.940597146065	1
55	641	0.940597146065	0
56	0	0	0
56	0	0	0
56	0	0	0
56	0	0	0
56	452	0.86000512	0
56	452	0.86000512	2
56	453	0.86000512	2
56	453	0.86000512	3
56	455	0.86000512	3
56	455	0.86000512	3
56	458	0.860024601481	3
56	458	0.860024601481	0
56	459	0.860024601481	0
56	459	0.860024601481	0
56	472	0.860255394353	0
56	472	0.860255394353	0
56	475	0.860274875834	0
56	475	0.860274875834	0
56	481	0.860274875834	0
56	481	0.860274875834	2
56	483	0.860284875834	2
56	483	0.860284875834	1
56	487	0.860296949908	1
56	487	0.860296949908	2
56	491	0.860726949908	2
56	491	0.860726949908	3
56	493	0.860726949908	3
56	493	0.860726949908	3
56	514	0.86076811315	3
56	514	0.86076811315	0
56	515	0.861059246204	0
56	515	0.861059246204	0
56	518	0.862729535887	0
56	518	0.862729535887	2
56	519	0.862729535887	2
56	519	0.862729535887	3
56	521	0.862729535887	3
56	521	0.862729535887	3
56	524	0.862750795146	3
56	524	0.862750795146	0
56	525	0.862750795146	0
56	525	0.862750795146	0
56	538	0.863975509651	0
56	538	0.863975509651	0
56	541	0.86399676891	0
56	541	0.86399676891	0
56	612	0.940005516436	0
56	612	0.940005516436	0
56	615	0.940023812732	0
56	615	0.940023812732	0
56	624	0.940033812732	0
56	624	0.940033812732	0
56	628	0.940045886806	0
56	628	0.940045886806	0
56	633	0.940307377611	0
56	633	0.940307377611	2
56	635	0.940575886806	2
56	635	0.940575886806	3
56	637	0.940575886806	3
56	637	0.940575886806	3
56	640	0.940597146065	3
56	640	0.940597146065	0
56	641	0.940597146065	0
56	641	0.940597146065	0
56	654	0.941493189462	0
56	654	0.941493189462	0
56	657	0.941514448721	0
56	657	0.941514448721	0
56	1043	1.591928484043	0
56	1043	1.591928484043	0
56	1046	1.591949743302	0
56	1046	1.591949743302	0
56	1087	1.633964141603	0
56	1087	1.633964141603	0
56	1090	1.633985400862	0
56	1090	1.633985400862	0
56	1180	1.742655751044	0
56	1180	1.742655751044	0
56	1183	1.742677010303	0
56	1183	1.742677010303	0
56	1224	1.782845739255	0
56	1224	1.782845739255	0
56	1227	1.782866998514	0
56	1227	1.782866998514	0
56	2056	3.364639259602	0
56	2056	3.364639259602	0
56	2059	3.364660518861	0
56	2059	3.364660518861	0
56	2105	3.41036069673	0
56	2105	3.41036069673	0
56	2108	3.410381955989	0
56	2108	3.410381955989	0
58	419	0.81001088	64
58	621	0.940029572732	64
59	412	0.81000512	0
59	447	0.86000512	0
60	412	0.81000512	0
60	447	0.86000512	0
63	418	0.81000512	64
63	620	0.940023812732	64
67	417	0.81000512	28
67	619	0.940023812732	20
68	413	0.81000512	28
68	448	0.86000512	20
70	960	1.51001088	64
70	1022	1.58001088	64
70	1159	1.73001088	64
70	2035	3.35001088	64
71	985	1.53001664	64
71	1101	1.64001088	64
71	1238	1.79001088	64
71	2119	3.42001088	64
72	985	1.53001664	64
72	1101	1.64001088	64
72	1238	1.79001088	64
72	2119	3.42001088	64
75	957	1.51000512	64
75	1020	1.58000512	64
75	1157	1.73000512	64
75	2033	3.35000512	64
81	989	1.5300224	64
81	1105	1.64001664	64
81	1242	1.79001664	64
81	2123	3.42001664	64
82	955	1.51000512	0
82	1018	1.58000512	0
82	1155	1.73000512	0
82	2031	3.35000512	0
83	955	1.51000512	0
83	1018	1.58000512	0
83	1155	1.73000512	0
83	2031	3.35000512	0
86	987	1.53001664	64
86	1103	1.64001088	64
86	1240	1.79001088	64
86	2121	3.42001088	64
92	961	1.51001088	64
97	958	1.51000512	64
